@<TRIPOS>MOLECULE
1DS
   74    63     1     0     0
SMALL
bcc


@<TRIPOS>ATOM
      1 O6         -1.1440    0.6210   -0.2350 oh        1 1DS     -0.151000
      2 C6         -0.0410    0.2500   -0.7850 c1        1 1DS      0.034000
      3 C5          1.1290   -0.1780    0.0430 c3        1 1DS     -0.147000
      4 C4          5.3220   -0.6450    2.8080 c2        1 1DS      0.012000
      5 C3          4.2790   -1.1620    3.4940 c2        1 1DS     -0.149000
      6 C2          3.5910   -2.4430    3.1360 c3        1 1DS      0.018000
      7 C1          2.1070   -2.1910    3.0870 c1        1 1DS     -0.084000
      8 O5          0.8510   -0.0200    1.4270 oh        1 1DS     -0.416000
      9 O1          1.4190   -3.0110    3.8450 os        1 1DS     -0.181000
     10 C2'        -0.0260   -2.7990    3.8880 c3        1 1DS      0.088000
     11 C3'        -0.2990   -1.6190    4.8680 c3        1 1DS      0.113000
     12 C4'        -1.6330   -1.1010    4.6850 c1        1 1DS     -0.112000
     13 C5'        -2.7540   -0.6770    4.5700 c1        1 1DS     -0.235000
     14 O2'        -0.4300   -2.5990    2.5730 oh        1 1DS     -0.305000
     15 C6'        -3.9720    0.0070    4.3480 c1        1 1DS      0.153000
     16 O6'        -5.1190   -0.5160    4.6190 oh        1 1DS     -0.142000
     17 O4'         1.8490    1.3970    3.4230 oh        1 1DS     -0.417000
     18 O3'         0.6990   -0.6270    4.7360 oh        1 1DS     -0.319000
     19 C1'        -0.7160   -4.0640    4.4260 c1        1 1DS      0.138000
     20 O1'        -0.0500   -5.1490    4.0860 os        1 1DS     -0.242000
     21 O2          3.9860   -3.5110    3.9800 oh        1 1DS     -0.319000
     22 O3          3.8670   -0.5360    4.6590 oh        1 1DS     -0.287000
     23 O4          5.9490    0.5190    3.1450 oh        1 1DS     -0.251000
     24 C1N        -0.5030   -6.4130    4.5320 c2        1 1DS      0.285000
     25 C2N        -0.4170   -7.6610    1.3390 c2        1 1DS     -0.237000
     26 O1N        -0.9080   -6.4890    5.6750 o         1 1DS     -0.240000
     27 C3N        -1.0300   -8.7590    1.7790 c2        1 1DS     -0.172000
     28 C4N        -0.3640  -10.0760    1.9230 c3        1 1DS     -0.139000
     29 C5N        -1.2170  -11.1860    1.3220 c3        1 1DS     -0.046000
     30 H1         -1.1780    0.6070    0.7490 ho        1 1DS      0.186000
     31 H2         -1.3600   -2.4140    0.3860 ha        1 1DS      0.001571
     32 H3         -1.0170   -1.8390    0.2720 ha        1 1DS      0.001571
     33 H4          1.3510   -1.2540   -0.1970 h1        1 1DS      0.112500
     34 H5          5.7920   -1.1050    1.9260 h4        1 1DS      0.172000
     35 H6          2.0170    0.4500   -0.2430 h1        1 1DS      0.112500
     36 H7          3.8960   -2.7810    2.0990 h1        1 1DS      0.145000
     37 H8          1.5740   -0.4460    1.9260 ho        1 1DS      0.257000
     38 H9         -0.1760   -1.9990    5.9290 h1        1 1DS      0.165000
     39 H10         1.5450    1.7670    2.5870 ho        1 1DS      0.211500
     40 H11        -0.1680   -1.7010    2.3010 ho        1 1DS      0.245000
     41 H12        -0.6150    1.3360    2.7060 ha        1 1DS      0.001571
     42 H13        -0.8790    0.7470    2.9170 ha        1 1DS      0.001571
     43 H14        -5.1260   -1.4230    4.9930 ho        1 1DS      0.182000
     44 H15         1.3450    1.8750    4.0880 ho        1 1DS      0.211500
     45 H16         0.6940   -0.3080    3.8180 ho        1 1DS      0.233000
     46 H17        -1.7580   -4.2990    1.7000 ha        1 1DS      0.001571
     47 H18        -1.7420   -4.6780    2.2640 ha        1 1DS      0.001571
     48 H19         3.8650   -3.2130    4.8910 ho        1 1DS      0.216000
     49 H20         2.9810   -0.1710    4.4800 ho        1 1DS      0.238000
     50 H21         5.5180    0.8890    3.9340 ho        1 1DS      0.236000
     51 H22        -0.3430   -7.1610    3.7310 h5        1 1DS      0.211000
     52 H23        -0.9350   -6.6950    1.2460 ha        1 1DS      0.120500
     53 H24         0.6360   -7.6510    1.0260 ha        1 1DS      0.120500
     54 H25        -2.0950   -8.7410    2.0670 ha        1 1DS      0.123000
     55 H26         0.6470  -10.0750    1.4340 hc        1 1DS      0.096500
     56 H27        -0.1990  -10.2860    3.0160 hc        1 1DS      0.096500
     57 H28        -1.4480  -10.9400    0.2470 hc        1 1DS      0.103500
     58 H29        -2.2000  -11.2450    1.8690 hc        1 1DS      0.103500
     59 C7         -0.5570  -12.4540    1.3860 c1        1 1DS     -0.155000
     60 C8         -0.0020  -13.5140    1.4280 c1        1 1DS     -0.166000
     61 C9          0.6750  -14.7770    1.4610 c3        1 1DS      0.034000
     62 C10         0.6760  -15.3820    2.8210 c2        1 1DS     -0.489000
     63 C11         0.1550  -16.5350    3.1700 c1        1 1DS      0.198000
     64 H30         2.1270  -10.3950    3.4080 ha        1 1DS      0.001571
     65 H31         2.4540  -10.9690    3.2580 ha        1 1DS      0.001571
     66 H32         2.9350  -13.3390    2.8280 ha        1 1DS      0.001571
     67 H33         3.0500  -13.2220    3.4860 ha        1 1DS      0.001571
     68 H34         2.1520  -12.0090    1.0530 ha        1 1DS      0.001571
     69 H35         2.7160  -11.6420    0.9700 ha        1 1DS      0.001571
     70 H36         1.7490  -14.6270    1.1370 hc        1 1DS      0.108000
     71 H37         0.1940  -15.4770    0.7210 hc        1 1DS      0.108000
     72 H38         4.0600  -14.3330    0.6330 ha        1 1DS      0.001571
     73 H39         3.8180  -13.7150    0.7710 ha        1 1DS      0.001571
     74 H40         1.1840  -14.7680    3.5950 ha        1 1DS      0.195000
@<TRIPOS>BOND
     1    1    2 1   
     2    1   30 1   
     3    2    3 1   
     4    3    8 1   
     5    3   33 1   
     6    3   35 1   
     7    4    5 1   
     8    4   23 1   
     9    4   34 1   
    10    5    6 1   
    11    5   22 1   
    12    6    7 1   
    13    6   21 1   
    14    6   36 1   
    15    7    9 1   
    16    8   37 1   
    17    9   10 1   
    18   10   11 1   
    19   10   14 1   
    20   10   19 1   
    21   11   12 1   
    22   11   18 1   
    23   11   38 1   
    24   12   13 1   
    25   13   15 1   
    26   14   40 1   
    27   15   16 1   
    28   16   43 1   
    29   17   39 1   
    30   17   44 1   
    31   18   45 1   
    32   19   20 1   
    33   20   24 1   
    34   21   48 1   
    35   22   49 1   
    36   23   50 1   
    37   24   26 1   
    38   24   51 1   
    39   25   27 1   
    40   25   52 1   
    41   25   53 1   
    42   27   28 1   
    43   27   54 1   
    44   28   29 1   
    45   28   55 1   
    46   28   56 1   
    47   29   57 1   
    48   29   58 1   
    49   29   59 1   
    50   31   32 1   
    51   41   42 1   
    52   46   47 1   
    53   59   60 1   
    54   60   61 1   
    55   61   62 1   
    56   61   70 1   
    57   61   71 1   
    58   62   63 1   
    59   62   74 1   
    60   64   65 1   
    61   66   67 1   
    62   68   69 1   
    63   72   73 1   
@<TRIPOS>SUBSTRUCTURE
     1 1DS         1 TEMP              0 ****  ****    0 ROOT
