@<TRIPOS>MOLECULE
1DT
   42    45     1     0     0
SMALL
bcc


@<TRIPOS>ATOM
      1 C1           0.0000     0.0000     0.0000 cc         1 1DT      -0.332000
      2 C2           1.3660     0.0000     0.0000 cd         1 1DT      -0.237100
      3 N3           1.8230     0.0000     1.2740 na         1 1DT       0.300900
      4 C4          -0.4180    -0.0010     1.4120 ca         1 1DT       0.353800
      5 C5           0.7720    -0.0010     2.1640 ca         1 1DT       0.058500
      6 N6           0.7060    -0.0010     3.4900 nb         1 1DT      -0.513000
      7 C7          -0.4680    -0.0020     4.0920 ca         1 1DT       0.278900
      8 C8          -1.6450    -0.0030     3.3480 ca         1 1DT       0.478300
      9 N9          -1.5950    -0.0020     2.0250 nb         1 1DT      -0.537000
     10 C10         -0.8790     0.0050    -1.1780 c          1 1DT       0.626300
     11 N11         -0.3460     0.0050    -2.4160 ns         1 1DT      -0.203900
     12 O12         -2.0860     0.0090    -1.0350 o          1 1DT      -0.628100
     13 C13         -1.2230     0.0110    -3.5900 c3         1 1DT       0.065700
     14 C14         -0.4830    -0.6000    -4.7820 cx         1 1DT      -0.137700
     15 C15         -1.6230     1.4500    -3.9200 c3         1 1DT      -0.031100
     16 C16         -1.2340    -0.6830    -6.1120 cx         1 1DT      -0.083400
     17 C17         -0.1050     0.3340    -5.9330 cx         1 1DT      -0.083400
     18 O18         -2.8470    -0.0040     3.9800 os         1 1DT      -0.338400
     19 C19         -3.9680     0.0970     3.2190 ca         1 1DT       0.108100
     20 C20         -4.4370    -1.0060     2.5210 ca         1 1DT      -0.101000
     21 C21         -5.5770    -0.9010     1.7490 ca         1 1DT      -0.085500
     22 C22         -6.2510     0.3030     1.6710 ca         1 1DT      -0.101000
     23 C23         -5.7870     1.4050     2.3660 ca         1 1DT      -0.085500
     24 C24         -4.6500     1.3030     3.1450 ca         1 1DT      -0.101000
     25 H1           1.9890    -0.0000    -0.8860 h4         1 1DT       0.143000
     26 H2           2.7900     0.0000     1.5330 hn         1 1DT       0.118700
     27 H3          -0.5170    -0.0030     5.1740 h4         1 1DT       0.000100
     28 H4           0.6470    -0.0310    -2.5330 hn         1 1DT       0.168500
     29 H5          -2.1120    -0.5720    -3.3790 h1         1 1DT       0.059700
     30 H6           0.2170    -1.4080    -4.6050 hc         1 1DT       0.058700
     31 H7          -0.7330     2.0430    -4.0870 hc         1 1DT       0.017033
     32 H8          -2.2350     1.4580    -4.8140 hc         1 1DT       0.017033
     33 H9          -2.1860     1.8670    -3.0940 hc         1 1DT       0.017033
     34 H10         -2.2370    -0.2730    -6.1090 hc         1 1DT       0.050700
     35 H11         -0.9970    -1.5410    -6.7290 hc         1 1DT       0.050700
     36 H12          0.8220     0.0980    -6.4410 hc         1 1DT       0.050700
     37 H13         -0.4180     1.3650    -5.8200 hc         1 1DT       0.050700
     38 H14         -3.9090    -1.9500     2.5820 ha         1 1DT       0.110000
     39 H15         -5.9430    -1.7630     1.2040 ha         1 1DT       0.102000
     40 H16         -7.1440     0.3850     1.0630 ha         1 1DT       0.101000
     41 H17         -6.3190     2.3460     2.3050 ha         1 1DT       0.102000
     42 H18         -4.2870     2.1670     3.6890 ha         1 1DT       0.110000
@<TRIPOS>BOND
     1     1     2 2   
     2     1     4 1   
     3     1    10 1   
     4     2     3 1   
     5     2    25 1   
     6     3     5 1   
     7     3    26 1   
     8     4     5 ar  
     9     4     9 ar  
    10     5     6 ar  
    11     6     7 ar  
    12     7     8 ar  
    13     7    27 1   
    14     8     9 ar  
    15     8    18 1   
    16    10    11 1   
    17    10    12 2   
    18    11    13 1   
    19    11    28 1   
    20    13    14 1   
    21    13    15 1   
    22    13    29 1   
    23    14    16 1   
    24    14    17 1   
    25    14    30 1   
    26    15    31 1   
    27    15    32 1   
    28    15    33 1   
    29    16    17 1   
    30    16    34 1   
    31    16    35 1   
    32    17    36 1   
    33    17    37 1   
    34    18    19 1   
    35    19    20 ar  
    36    19    24 ar  
    37    20    21 ar  
    38    20    38 1   
    39    21    22 ar  
    40    21    39 1   
    41    22    23 ar  
    42    22    40 1   
    43    23    24 ar  
    44    23    41 1   
    45    24    42 1   
@<TRIPOS>SUBSTRUCTURE
     1 1DT         1 TEMP              0 ****  ****    0 ROOT
