@<TRIPOS>MOLECULE
1DT
   43    46     1     0     0
SMALL
bcc


@<TRIPOS>ATOM
      1 C1          -0.0390    -0.3850     0.1140 cc         1 1DT      -0.427000
      2 C2           1.3520    -0.6880     0.1250 cd         1 1DT       0.060900
      3 N3           1.8400    -0.6530     1.4020 na         1 1DT      -0.213100
      4 C4          -0.4270    -0.1570     1.4900 ca         1 1DT       0.363800
      5 C5           0.7830    -0.3320     2.2820 ca         1 1DT       0.265500
      6 N6           0.8070    -0.1940     3.6470 nb         1 1DT      -0.560000
      7 C7          -0.3670     0.0990     4.1900 ca         1 1DT       0.319900
      8 C8          -1.5840     0.2580     3.3990 ca         1 1DT       0.558300
      9 N9          -1.6260     0.1420     2.0550 nb         1 1DT      -0.737000
     10 C10         -0.8360    -0.3430    -1.0710 c          1 1DT       0.607300
     11 N11         -2.2590     0.1390    -0.8600 ny         1 1DT      -0.664800
     12 O12         -0.5040    -0.6340    -2.2170 o          1 1DT      -0.465100
     13 C13         -3.0780     0.2170    -2.1240 c3         1 1DT       0.162500
     14 C14         -4.1130     1.3140    -2.0870 cx         1 1DT      -0.170700
     15 C15         -3.7350    -1.1260    -2.4270 c3         1 1DT      -0.123100
     16 C16         -4.7000     1.9050    -0.8330 cx         1 1DT      -0.128900
     17 C17         -3.7750     2.7240    -1.6800 cx         1 1DT      -0.128900
     18 O18         -2.6860     0.5470     4.1660 os         1 1DT      -0.338400
     19 C19         -3.9420     0.5810     3.5400 ca         1 1DT       0.066100
     20 C20         -4.3770     1.7610     2.9280 ca         1 1DT      -0.125000
     21 C21         -5.6930     1.8250     2.4680 ca         1 1DT      -0.123000
     22 C22         -6.5450     0.7290     2.6160 ca         1 1DT      -0.117000
     23 C23         -6.0900    -0.4440     3.2210 ca         1 1DT      -0.123000
     24 C24         -4.7780    -0.5310     3.6870 ca         1 1DT      -0.125000
     25 H1           1.9880    -0.9220    -0.7410 h4         1 1DT       0.215000
     26 H2           2.7770    -0.8250     1.6880 hn         1 1DT       0.347700
     27 H3          -0.4130     0.2230     5.2880 h4         1 1DT       0.080100
     28 H4          -2.7210    -0.4980    -0.1990 hn         1 1DT       0.467800
     29 H5          -2.3520     0.4630    -2.9630 hx         1 1DT       0.124700
     30 H6          -4.8010     1.1880    -2.9540 hc         1 1DT       0.124700
     31 H7          -4.4900    -1.3980    -1.6510 hc         1 1DT       0.074700
     32 H8          -2.9690    -1.9360    -2.5040 hc         1 1DT       0.074700
     33 H9          -4.2580    -1.0490    -3.4140 hc         1 1DT       0.074700
     34 H10         -4.3810     1.5660     0.1700 hc         1 1DT       0.088200
     35 H11         -5.7810     2.1450    -0.8340 hc         1 1DT       0.088200
     36 H12         -4.1880     3.5570    -2.2810 hc         1 1DT       0.088200
     37 H13         -2.7640     2.9700    -1.3090 hc         1 1DT       0.088200
     38 H14         -3.7040     2.6260     2.8440 ha         1 1DT       0.153500
     39 H15         -6.0620     2.7510     2.0030 ha         1 1DT       0.150500
     40 H16         -7.5870     0.7940     2.2640 ha         1 1DT       0.150000
     41 H17         -6.7700    -1.3000     3.3450 ha         1 1DT       0.150500
     42 H18         -4.4120    -1.4410     4.1840 ha         1 1DT       0.153500
     43 H112        -2.2160     1.0670    -0.4220 hn         1 1DT       0.467800
@<TRIPOS>BOND
     1     1     2 2   
     2     1     4 1   
     3     1    10 1   
     4     2     3 1   
     5     2    25 1   
     6     3     5 1   
     7     3    26 1   
     8     4     5 ar  
     9     4     9 ar  
    10     5     6 ar  
    11     6     7 ar  
    12     7     8 ar  
    13     7    27 1   
    14     8     9 ar  
    15     8    18 1   
    16    10    11 1   
    17    10    12 2   
    18    11    13 1   
    19    11    28 1   
    20    11    43 1   
    21    13    14 1   
    22    13    15 1   
    23    13    29 1   
    24    14    16 1   
    25    14    17 1   
    26    14    30 1   
    27    15    31 1   
    28    15    32 1   
    29    15    33 1   
    30    16    17 1   
    31    16    34 1   
    32    16    35 1   
    33    17    36 1   
    34    17    37 1   
    35    18    19 1   
    36    19    20 ar  
    37    19    24 ar  
    38    20    21 ar  
    39    20    38 1   
    40    21    22 ar  
    41    21    39 1   
    42    22    23 ar  
    43    22    40 1   
    44    23    24 ar  
    45    23    41 1   
    46    24    42 1   
@<TRIPOS>SUBSTRUCTURE
     1 1DT         1 TEMP              0 ****  ****    0 ROOT
