@<TRIPOS>MOLECULE
molecule
   42    45     1     0     0
SMALL
bcc


@<TRIPOS>ATOM
      1 C1           0.0000     0.0000     0.0000 cc         1 1DT      -0.326000
      2 C2           1.3660     0.0000     0.0000 cd         1 1DT      -0.049100
      3 N3           1.8230     0.0000     1.2740 na         1 1DT      -0.259100
      4 C4          -0.4180    -0.0010     1.4120 ca         1 1DT       0.395800
      5 C5           0.7720    -0.0010     2.1640 ca         1 1DT       0.297500
      6 N6           0.7060    -0.0010     3.4900 nb         1 1DT      -0.643000
      7 C7          -0.4680    -0.0020     4.0920 ca         1 1DT       0.315900
      8 C8          -1.6450    -0.0030     3.3480 ca         1 1DT       0.519300
      9 N9          -1.5950    -0.0020     2.0250 nb         1 1DT      -0.664000
     10 C10         -0.8790     0.0050    -1.1780 c          1 1DT       0.697300
     11 N11         -0.3460     0.0050    -2.4160 ns         1 1DT      -0.586900
     12 O12         -2.0860     0.0090    -1.0350 o          1 1DT      -0.581100
     13 C13         -1.2230     0.0110    -3.5900 c3         1 1DT       0.154700
     14 C14         -0.4830    -0.6000    -4.7820 cx         1 1DT      -0.159700
     15 C15         -1.6230     1.4500    -3.9200 c3         1 1DT      -0.112100
     16 C16         -1.2340    -0.6830    -6.1120 cx         1 1DT      -0.135900
     17 C17         -0.1050     0.3340    -5.9330 cx         1 1DT      -0.135900
     18 O18         -2.8470    -0.0040     3.9800 os         1 1DT      -0.356400
     19 C19         -3.9680     0.0970     3.2190 ca         1 1DT       0.102100
     20 C20         -4.4370    -1.0060     2.5210 ca         1 1DT      -0.117000
     21 C21         -5.5770    -0.9010     1.7490 ca         1 1DT      -0.117500
     22 C22         -6.2510     0.3030     1.6710 ca         1 1DT      -0.122000
     23 C23         -5.7870     1.4050     2.3660 ca         1 1DT      -0.117500
     24 C24         -4.6500     1.3030     3.1450 ca         1 1DT      -0.117000
     25 H1           1.9890    -0.0000    -0.8860 h4         1 1DT       0.173000
     26 H2           2.7900     0.0000     1.5330 hn         1 1DT       0.309700
     27 H3          -0.5170    -0.0030     5.1740 h4         1 1DT       0.046100
     28 H4           0.6470    -0.0310    -2.5330 hn         1 1DT       0.304500
     29 H5          -2.1120    -0.5720    -3.3790 h1         1 1DT       0.085700
     30 H6           0.2170    -1.4080    -4.6050 hc         1 1DT       0.082700
     31 H7          -0.7330     2.0430    -4.0870 hc         1 1DT       0.045033
     32 H8          -2.2350     1.4580    -4.8140 hc         1 1DT       0.045033
     33 H9          -2.1860     1.8670    -3.0940 hc         1 1DT       0.045033
     34 H10         -2.2370    -0.2730    -6.1090 hc         1 1DT       0.077200
     35 H11         -0.9970    -1.5410    -6.7290 hc         1 1DT       0.077200
     36 H12          0.8220     0.0980    -6.4410 hc         1 1DT       0.077200
     37 H13         -0.4180     1.3650    -5.8200 hc         1 1DT       0.077200
     38 H14         -3.9090    -1.9500     2.5820 ha         1 1DT       0.138500
     39 H15         -5.9430    -1.7630     1.2040 ha         1 1DT       0.132000
     40 H16         -7.1440     0.3850     1.0630 ha         1 1DT       0.129000
     41 H17         -6.3190     2.3460     2.3050 ha         1 1DT       0.132000
     42 H18         -4.2870     2.1670     3.6890 ha         1 1DT       0.138500
@<TRIPOS>BOND
     1    17    16 1
     2    17    14 1
     3    16    14 1
     4    14    13 1
     5    21    20 ar
     6    21    22 ar
     7    20    19 ar
     8    13    11 1
     9    13    15 1
    10    22    23 ar
    11    12    10 2
    12    11    10 1
    13    10     1 1
    14    19    18 1
    15    19    24 ar
    16     1     4 1
    17     1     2 2
    18    23    24 ar
    19     9     4 ar
    20     9     8 ar
    21     4     5 ar
    22     2     3 1
    23     8    18 1
    24     8     7 ar
    25     5     3 1
    26     5     6 ar
    27     7     6 ar
    28     2    25 1
    29     3    26 1
    30     7    27 1
    31    11    28 1
    32    13    29 1
    33    14    30 1
    34    15    31 1
    35    15    32 1
    36    15    33 1
    37    16    34 1
    38    16    35 1
    39    17    36 1
    40    17    37 1
    41    20    38 1
    42    21    39 1
    43    22    40 1
    44    23    41 1
    45    24    42 1
@<TRIPOS>SUBSTRUCTURE
     1 1DT         1 TEMP              0 ****  ****    0 ROOT
