@<TRIPOS>MOLECULE
1DU
   16    16     1     0     0
SMALL
bcc


@<TRIPOS>ATOM
      1 CAD         -0.0100    -0.0080    -0.0650 cc         1 1DU      -0.145300
      2 CAB          1.3910    -0.0320    -0.0520 cd         1 1DU      -0.299300
      3 CAC          1.7410    -0.0610     1.3500 cd         1 1DU       0.299200
      4 NAG          0.6210    -0.0540     2.1160 nc         1 1DU      -0.530800
      5 NAH         -0.4250    -0.0240     1.2750 na         1 1DU       0.080400
      6 CAF         -1.8100     0.0300     1.6990 c3         1 1DU       0.012300
      7 CAE         -2.1590    -0.8810     2.8840 c3         1 1DU       0.129400
      8 OAA         -1.8690    -0.2670     4.1180 oh         1 1DU      -0.599800
      9 H1          -0.7200     0.0180    -0.8900 h4         1 1DU       0.174000
     10 H2           2.0690    -0.0290    -0.8960 ha         1 1DU       0.166000
     11 H3           2.7390    -0.0860     1.7880 h4         1 1DU       0.043100
     12 H4          -2.4410    -0.2640     0.8140 h1         1 1DU       0.067200
     13 H5          -2.0550     1.0940     1.9860 h1         1 1DU       0.067200
     14 H6          -3.2740    -1.0300     2.8990 h1         1 1DU       0.057200
     15 H7          -1.6490    -1.8770     2.8020 h1         1 1DU       0.057200
     16 H8          -0.9090    -0.2040     4.2020 ho         1 1DU       0.422000
@<TRIPOS>BOND
     1     1     2 2   
     2     1     5 1   
     3     1     9 1   
     4     2     3 1   
     5     2    10 1   
     6     3     4 2   
     7     3    11 1   
     8     4     5 1   
     9     5     6 1   
    10     6     7 1   
    11     6    12 1   
    12     6    13 1   
    13     7     8 1   
    14     7    14 1   
    15     7    15 1   
    16     8    16 1   
@<TRIPOS>SUBSTRUCTURE
     1 1DU         1 TEMP              0 ****  ****    0 ROOT
