@<TRIPOS>MOLECULE
1DU
   16    16     1     0     0
SMALL
bcc


@<TRIPOS>ATOM
      1 CAD        -0.0150   -0.0440   -0.0250 cc        1 1DU     -0.143300
      2 CAB         1.3840   -0.0210   -0.0800 cd        1 1DU     -0.300300
      3 CAC         1.8020    0.0620    1.3020 cd        1 1DU      0.293200
      4 NAG         0.7220    0.0860    2.1220 nc        1 1DU     -0.514800
      5 NAH        -0.3640    0.0360    1.3320 na        1 1DU      0.079400
      6 CAF        -1.7230    0.0030    1.8300 c3        1 1DU      0.053300
      7 CAE        -2.0330   -1.2400    2.6800 c3        1 1DU      0.113400
      8 OAA        -3.4260   -1.1690    2.9460 oh        1 1DU     -0.604800
      9 H1         -0.7640   -0.0970   -0.8130 h4        1 1DU      0.175000
     10 H2          2.0220   -0.0530   -0.9540 ha        1 1DU      0.165000
     11 H3          2.8200    0.1030    1.6890 h4        1 1DU      0.042100
     12 H4         -1.9110    0.9210    2.4560 h1        1 1DU      0.074700
     13 H5         -2.4190    0.0260    0.9450 h1        1 1DU      0.074700
     14 H6         -1.8030   -2.1850    2.1200 h1        1 1DU      0.041200
     15 H7         -1.4460   -1.2220    3.6360 h1        1 1DU      0.041200
     16 H8         -3.6150   -1.8590    3.5920 ho        1 1DU      0.409000
@<TRIPOS>BOND
     1    1    2 2   
     2    1    5 1   
     3    1    9 1   
     4    2    3 1   
     5    2   10 1   
     6    3    4 2   
     7    3   11 1   
     8    4    5 1   
     9    5    6 1   
    10    6    7 1   
    11    6   12 1   
    12    6   13 1   
    13    7    8 1   
    14    7   14 1   
    15    7   15 1   
    16    8   16 1   
@<TRIPOS>SUBSTRUCTURE
     1 1DU         1 TEMP              0 ****  ****    0 ROOT
