@<TRIPOS>MOLECULE
molecule
   16    16     1     0     0
SMALL
bcc


@<TRIPOS>ATOM
      1 CAD          0.0000     0.0000     0.0000 cc         1 1DU      -0.109300
      2 CAB          1.3530     0.0000     0.0000 cd         1 1DU      -0.355300
      3 CAC          1.7840     0.0000     1.3300 cd         1 1DU       0.334200
      4 NAG          0.7280     0.0010     2.1020 nc         1 1DU      -0.517800
      5 NAH         -0.4100     0.0000     1.2850 na         1 1DU       0.060400
      6 CAF         -1.8010     0.0000     1.7460 c3         1 1DU       0.077300
      7 CAE         -2.0260    -1.1810     2.6920 c3         1 1DU       0.122400
      8 OAA         -3.3820    -1.1810     3.1410 oh         1 1DU      -0.614800
      9 H1          -0.6390    -0.0000    -0.8750 h4         1 1DU       0.169000
     10 H2           1.9900    -0.0000    -0.8760 ha         1 1DU       0.154000
     11 H3           2.8150     0.0000     1.6640 h4         1 1DU       0.048100
     12 H4          -2.4630    -0.0890     0.8940 h1         1 1DU       0.070700
     13 H5          -2.0080     0.9260     2.2690 h1         1 1DU       0.070700
     14 H6          -1.8190    -2.1070     2.1690 h1         1 1DU       0.039700
     15 H7          -1.3630    -1.0920     3.5450 h1         1 1DU       0.039700
     16 H8          -3.5300    -1.9300     3.6940 ho         1 1DU       0.412000
@<TRIPOS>BOND
     1     7     6 1   
     2     7     8 1   
     3     6     5 1   
     4     1     5 1   
     5     1     2 2   
     6     5     4 1   
     7     2     3 1   
     8     4     3 2   
     9     1     9 1   
    10     2    10 1   
    11     3    11 1   
    12     6    12 1   
    13     6    13 1   
    14     7    14 1   
    15     7    15 1   
    16     8    16 1   
@<TRIPOS>SUBSTRUCTURE
     1 1DU         1 TEMP              0 ****  ****    0 ROOT
