@<TRIPOS>MOLECULE
1DV
   15    15     1     0     0
SMALL
bcc


@<TRIPOS>ATOM
      1 FAB         0.2070   -0.4050   -0.5980 f         1 1DV     -0.231633
      2 CAJ         1.3550    0.0400    0.0100 c3        1 1DV      0.632600
      3 FAC         1.0060    0.1980    1.3280 f         1 1DV     -0.231633
      4 FAD         2.1890   -1.0510    0.0050 f         1 1DV     -0.231633
      5 CAI         1.9600    1.2690   -0.6260 cc        1 1DV      0.204600
      6 CAE         3.2790    1.3680   -1.2040 cc        1 1DV     -0.240300
      7 CAH         3.3690    2.6950   -1.6570 cd        1 1DV     -0.098600
      8 CAA         4.4740    3.3890   -2.3320 c3        1 1DV     -0.038800
      9 NAG         2.1360    3.2950   -1.3330 na        1 1DV     -0.002600
     10 NAF         1.3030    2.4630   -0.7280 nd        1 1DV     -0.451800
     11 H1          4.0210    0.5790   -1.2640 ha        1 1DV      0.182000
     12 H2          4.8250    4.2650   -1.7300 hc        1 1DV      0.059367
     13 H3          5.3310    2.6810   -2.4620 hc        1 1DV      0.059367
     14 H4          4.1600    3.7560   -3.3420 hc        1 1DV      0.059367
     15 H5          1.8650    4.2340   -1.5150 hn        1 1DV      0.328700
@<TRIPOS>BOND
     1    1    2 1   
     2    2    3 1   
     3    2    4 1   
     4    2    5 1   
     5    5    6 1   
     6    5   10 2   
     7    6    7 2   
     8    6   11 1   
     9    7    8 1   
    10    7    9 1   
    11    8   12 1   
    12    8   13 1   
    13    8   14 1   
    14    9   10 1   
    15    9   15 1   
@<TRIPOS>SUBSTRUCTURE
     1 1DV         1 TEMP              0 ****  ****    0 ROOT
