@<TRIPOS>MOLECULE
molecule
   15    15     1     0     0
SMALL
bcc


@<TRIPOS>ATOM
      1 FAB          0.0000     0.0000     0.0000 f          1 1DV      -0.214633
      2 CAJ          1.4000     0.0000     0.0000 c3         1 1DV       0.615600
      3 FAC          1.8660     0.0000     1.3190 f          1 1DV      -0.214633
      4 FAD          1.8660    -1.1430    -0.6590 f          1 1DV      -0.214633
      5 CAI          1.9020     1.2300    -0.7100 cc         1 1DV       0.253600
      6 CAE          3.2390     1.5210    -0.9990 cc         1 1DV      -0.311300
      7 CAH          3.2770     2.7120    -1.6410 cd         1 1DV      -0.066600
      8 CAA          4.5130     3.4130    -2.1410 c3         1 1DV      -0.030800
      9 NAG          2.0080     3.1570    -1.7560 na         1 1DV      -0.028600
     10 NAF          1.1630     2.2080    -1.1680 nd         1 1DV      -0.457800
     11 H1           4.0960     0.9200    -0.7220 ha         1 1DV       0.167000
     12 H2           4.9700     3.9640    -1.3270 hc         1 1DV       0.056033
     13 H3           4.2430     4.1000    -2.9350 hc         1 1DV       0.056033
     14 H4           5.2150     2.6810    -2.5210 hc         1 1DV       0.056033
     15 H5           1.7220     4.0130    -2.1880 hn         1 1DV       0.336700
@<TRIPOS>BOND
     1     8     7 1   
     2     6     7 2   
     3     6     5 1   
     4     7     9 1   
     5     4     2 1   
     6     5     2 1   
     7     5    10 2   
     8     2     1 1   
     9     2     3 1   
    10     9    10 1   
    11     6    11 1   
    12     8    12 1   
    13     8    13 1   
    14     8    14 1   
    15     9    15 1   
@<TRIPOS>SUBSTRUCTURE
     1 1DV         1 TEMP              0 ****  ****    0 ROOT
