@<TRIPOS>MOLECULE
1DV
   15    15     1     0     0
SMALL
bcc


@<TRIPOS>ATOM
      1 FAB          0.0030    -0.1960     0.4540 f          1 1DV      -0.231633
      2 CAJ          1.3020    -0.0240     0.0460 c3         1 1DV       0.632600
      3 FAC          1.9860     0.2740     1.1980 f          1 1DV      -0.231633
      4 FAD          1.2860     1.1560    -0.6570 f          1 1DV      -0.231633
      5 CAI          1.8710    -1.1860    -0.7340 cc         1 1DV       0.204600
      6 CAE          2.3690    -1.1430    -2.0870 cc         1 1DV      -0.240300
      7 CAH          2.7820    -2.4590    -2.3550 cd         1 1DV      -0.098600
      8 CAA          3.3740    -3.0320    -3.5720 c3         1 1DV      -0.038800
      9 NAG          2.5150    -3.1910    -1.1820 na         1 1DV      -0.002600
     10 NAF          1.9800    -2.4500    -0.2240 nd         1 1DV      -0.451800
     11 H1           2.4060    -0.2750    -2.7360 ha         1 1DV       0.182000
     12 H2           2.7280    -3.8470    -3.9870 hc         1 1DV       0.059700
     13 H3           4.3880    -3.4560    -3.3620 hc         1 1DV       0.059700
     14 H4           3.4770    -2.2310    -4.3460 hc         1 1DV       0.059700
     15 H5           2.6880    -4.1580    -1.0310 hn         1 1DV       0.328700
@<TRIPOS>BOND
     1     1     2 1   
     2     2     3 1   
     3     2     4 1   
     4     2     5 1   
     5     5     6 1   
     6     5    10 2   
     7     6     7 2   
     8     6    11 1   
     9     7     8 1   
    10     7     9 1   
    11     8    12 1   
    12     8    13 1   
    13     8    14 1   
    14     9    10 1   
    15     9    15 1   
@<TRIPOS>SUBSTRUCTURE
     1 1DV         1 TEMP              0 ****  ****    0 ROOT
