@<TRIPOS>MOLECULE
1DW
   15    15     1     0     0
SMALL
bcc


@<TRIPOS>ATOM
      1 OAA          1.6810     0.3680    -1.0830 o          1 1DW      -0.520100
      2 CAD          1.1580     0.0510    -0.0120 c          1 1DW       0.569500
      3 CAJ          1.9120     0.0080     1.2600 ca         1 1DW      -0.129600
      4 CAI          1.3120    -0.3510     2.4760 ca         1 1DW      -0.024900
      5 Br1         -0.5030    -0.8110     2.6040 br         1 1DW      -0.079100
      6 CAF          2.0760    -0.3740     3.6500 ca         1 1DW      -0.087000
      7 CAE          3.4260    -0.0450     3.6310 ca         1 1DW      -0.131000
      8 CAH          4.0230     0.3140     2.4120 ca         1 1DW       0.127100
      9 OAB          5.3600     0.6290     2.4510 oh         1 1DW      -0.490100
     10 CAG          3.2710     0.3410     1.2320 ca         1 1DW      -0.162000
     11 H1           0.0810    -0.2210     0.0490 h4         1 1DW       0.024200
     12 H2           1.6080    -0.6560     4.6080 ha         1 1DW       0.154000
     13 H3           4.0290    -0.0620     4.5510 ha         1 1DW       0.160000
     14 H4           5.6430     0.8560     1.5520 ho         1 1DW       0.427000
     15 H5           3.7340     0.6220     0.2710 ha         1 1DW       0.163000
@<TRIPOS>BOND
     1     1     2 2   
     2     2     3 1   
     3     2    11 1   
     4     3     4 ar  
     5     3    10 ar  
     6     4     5 1   
     7     4     6 ar  
     8     6     7 ar  
     9     6    12 1   
    10     7     8 ar  
    11     7    13 1   
    12     8     9 1   
    13     8    10 ar  
    14     9    14 1   
    15    10    15 1   
@<TRIPOS>SUBSTRUCTURE
     1 1DW         1 TEMP              0 ****  ****    0 ROOT
