@<TRIPOS>MOLECULE
molecule
   15    15     1     0     0
SMALL
bcc


@<TRIPOS>ATOM
      1 OAA          0.0000     0.0000     0.0000 o          1 1DW      -0.495100
      2 CAD          1.2130     0.0000     0.0000 c          1 1DW       0.566500
      3 CAJ          1.9490     0.0000     1.2740 ca         1 1DW      -0.164600
      4 CAI          1.2520    -0.0050     2.4880 ca         1 1DW       0.018100
      5 Br1         -0.6390    -0.0130     2.4950 br         1 1DW      -0.045100
      6 CAF          1.9470    -0.0040     3.6810 ca         1 1DW      -0.105000
      7 CAE          3.3300     0.0010     3.6800 ca         1 1DW      -0.123000
      8 CAH          4.0310     0.0070     2.4800 ca         1 1DW       0.101100
      9 OAB          5.3900     0.0130     2.4880 oh         1 1DW      -0.518100
     10 CAG          3.3460     0.0010     1.2780 ca         1 1DW      -0.113000
     11 H1           1.7550     0.0040    -0.9380 h4         1 1DW       0.005200
     12 H2           1.4080    -0.0080     4.6200 ha         1 1DW       0.152000
     13 H3           3.8700     0.0020     4.6190 ha         1 1DW       0.149000
     14 H4           5.7000     0.9020     2.4450 ho         1 1DW       0.423000
     15 H5           3.8920     0.0050     0.3420 ha         1 1DW       0.148000
@<TRIPOS>BOND
     1     2     1 2   
     2     2     3 1   
     3     3    10 ar  
     4     3     4 ar  
     5    10     8 ar  
     6     5     4 1   
     7     4     6 ar  
     8     8     9 1   
     9     8     7 ar  
    10     6     7 ar  
    11     2    11 1   
    12     6    12 1   
    13     7    13 1   
    14     9    14 1   
    15    10    15 1   
@<TRIPOS>SUBSTRUCTURE
     1 1DW         1 TEMP              0 ****  ****    0 ROOT
