@<TRIPOS>MOLECULE
1DW
   15    15     1     0     0
SMALL
bcc


@<TRIPOS>ATOM
      1 OAA         1.7180    0.5020   -0.9990 o         1 1DW     -0.520100
      2 CAD         1.1970    0.0660    0.0310 c         1 1DW      0.569500
      3 CAJ         1.9150    0.0090    1.3230 ca        1 1DW     -0.129600
      4 CAI         1.3170   -0.4840    2.4920 ca        1 1DW     -0.024900
      5 BR1        -0.4490   -1.1170    2.5280 br        1 1DW     -0.079100
      6 CAF         2.0460   -0.5140    3.6880 ca        1 1DW     -0.087000
      7 CAE         3.3580   -0.0610    3.7380 ca        1 1DW     -0.131000
      8 CAH         3.9540    0.4320    2.5640 ca        1 1DW      0.127100
      9 OAB         5.2530    0.8670    2.6700 oh        1 1DW     -0.490100
     10 CAG         3.2370    0.4680    1.3630 ca        1 1DW     -0.162000
     11 H1          0.1500   -0.3100    0.0360 h4        1 1DW      0.024200
     12 H2          1.5790   -0.9010    4.6090 ha        1 1DW      0.154000
     13 H3          3.9340   -0.0830    4.6740 ha        1 1DW      0.160000
     14 H4          5.5380    1.1780    1.7980 ho        1 1DW      0.427000
     15 H5          3.6980    0.8540    0.4390 ha        1 1DW      0.163000
@<TRIPOS>BOND
     1    1    2 2   
     2    2    3 1   
     3    2   11 1   
     4    3    4 ar  
     5    3   10 ar  
     6    4    5 1   
     7    4    6 ar  
     8    6    7 ar  
     9    6   12 1   
    10    7    8 ar  
    11    7   13 1   
    12    8    9 1   
    13    8   10 ar  
    14    9   14 1   
    15   10   15 1   
@<TRIPOS>SUBSTRUCTURE
     1 1DW         1 TEMP              0 ****  ****    0 ROOT
