@<TRIPOS>MOLECULE
molecule
   76    79     1     0     0
SMALL
bcc


@<TRIPOS>ATOM
      1 FAA          0.0000     0.0000     0.0000 f          1 1DX      -0.156900
      2 OAA          3.1630     0.6400    -9.8290 o          1 1DX      -0.864300
      3 CAB          2.0420     0.0000     1.1990 ca         1 1DX      -0.144000
      4 OAB         11.5380    -3.3800    -1.3120 o          1 1DX      -0.854300
      5 CAC          1.3500     0.0000     0.0000 ca         1 1DX       0.079900
      6 OAC          4.9100     1.0060   -11.1320 o          1 1DX      -0.864300
      7 CAD          2.0420    -0.0010    -1.2000 ca         1 1DX      -0.131000
      8 OAD         10.1350    -4.2770     0.1570 o          1 1DX      -0.854300
      9 CAE          3.4240     0.0000     1.2000 ca         1 1DX      -0.207000
     10 FAE         15.6470    -0.5530     4.4550 f          1 1DX      -0.233967
     11 CAG         13.6530     1.1620     2.6240 ca         1 1DX      -0.095500
     12 CAH         14.3600    -0.0240     2.5320 ca         1 1DX      -0.206300
     13 CAI         15.7410    -0.1230     3.1270 c3         1 1DX       0.669200
     14 CAJ         12.3890     1.2570     2.0800 ca         1 1DX      -0.136000
     15 FAJ         16.3580     1.1320     3.0860 f          1 1DX      -0.233967
     16 CAK         12.5400    -1.0340     1.3480 ca         1 1DX      -0.136000
     17 FAK         16.5010    -1.0400     2.3930 f          1 1DX      -0.233967
     18 CAN          9.6320     1.4120     0.9430 ca         1 1DX      -0.102500
     19 CAO          9.7570    -0.9930     0.8370 ca         1 1DX      -0.102500
     20 CAP          8.2610     1.3280     1.0860 ca         1 1DX      -0.110500
     21 CAQ          8.3860    -1.0650     0.9800 ca         1 1DX      -0.110500
     22 CAR          6.7840    -3.6270    -2.2360 ca         1 1DX      -0.147500
     23 CAS          8.2430    -2.6340    -3.8620 ca         1 1DX      -0.147500
     24 CAT          7.8600    -3.8690    -1.4070 ca         1 1DX      -0.103500
     25 CAU          9.3280    -2.8700    -3.0430 ca         1 1DX      -0.103500
     26 CAV          4.3810    -0.1810    -7.6230 c3         1 1DX      -0.065400
     27 CAW          5.2790    -0.6250    -6.4660 c3         1 1DX      -0.085400
     28 CAX          5.2480     0.1920    -8.8260 c3         1 1DX      -0.181400
     29 CBB          4.4120    -0.9990    -5.2620 c3         1 1DX       0.148800
     30 CBC          4.5390    -1.4410    -2.8850 c3         1 1DX       0.156800
     31 CBD          6.1260    -0.0000     1.2730 c3         1 1DX       0.187700
     32 CBE          5.7880    -2.7960    -4.4030 c3         1 1DX       0.199100
     33 CBG          4.3640     0.6300    -9.9660 c          1 1DX       0.891600
     34 CBH         10.3010    -3.7460    -0.9240 c          1 1DX       0.883200
     35 CBI         11.8230     0.1570     1.4380 cp         1 1DX       0.034000
     36 CBJ         10.3890     0.2490     0.8170 cp         1 1DX      -0.038000
     37 CBK          7.6400     0.0930     1.1060 ca         1 1DX      -0.095300
     38 CBL          6.9740    -3.0110    -3.4600 ca         1 1DX      -0.090300
     39 CBM          9.1430    -3.4910    -1.8070 ca         1 1DX      -0.121600
     40 CBN          3.4240    -0.0010    -1.2010 ca         1 1DX      -0.075300
     41 CBO          4.1180     0.0010     0.0000 ca         1 1DX       0.140100
     42 NBP          5.2720    -1.4430    -4.1570 n3         1 1DX      -0.702600
     43 CZD         13.8040    -1.1190     1.8950 ca         1 1DX      -0.095500
     44 HAB          1.5000    -0.0000     2.1370 ha         1 1DX       0.131000
     45 HAD          1.5000     0.0290    -2.1370 ha         1 1DX       0.151000
     46 HAE          3.9650     0.0000     2.1390 ha         1 1DX       0.136000
     47 HAG         14.0750     2.0020     3.1630 ha         1 1DX       0.141000
     48 HAJ         12.3720     2.2630     1.6790 ha         1 1DX       0.174500
     49 HAK         12.3120    -1.9800     0.8720 ha         1 1DX       0.174500
     50 HAN         10.1180     2.3800     0.9290 ha         1 1DX       0.159500
     51 HAO         10.3400    -1.9000     0.7380 ha         1 1DX       0.159500
     52 HAP          7.6720     2.2320     1.1850 ha         1 1DX       0.136500
     53 HAQ          7.8940    -2.0300     0.9960 ha         1 1DX       0.136500
     54 HAR          5.7880    -3.9200    -1.9270 ha         1 1DX       0.112500
     55 HAS          8.3850    -2.1520    -4.8220 ha         1 1DX       0.112500
     56 HAT          7.7090    -4.3510    -0.4490 ha         1 1DX       0.142000
     57 HAU         10.3210    -2.5740    -3.3590 ha         1 1DX       0.142000
     58 HAV          3.7980     0.6790    -7.3170 hc         1 1DX       0.040200
     59 HAVA         3.7150    -0.9910    -7.8940 hc         1 1DX       0.040200
     60 HAW          5.9450     0.1850    -6.1940 hc         1 1DX       0.040700
     61 HAWA         5.8630    -1.4850    -6.7710 hc         1 1DX       0.040700
     62 HAX          5.8310    -0.6680    -9.1320 hc         1 1DX       0.029200
     63 HAXA         5.9140     1.0020    -8.5550 hc         1 1DX       0.029200
     64 HBA          5.0820     0.5820    -2.4030 hc         1 1DX       0.066200
     65 HBAA         3.5550     0.4280    -3.2820 hc         1 1DX       0.066200
     66 HBB          3.8380    -0.1350    -4.9480 h1         1 1DX       0.026700
     67 HBBA         3.7370    -1.8000    -5.5380 h1         1 1DX       0.026700
     68 HBC          3.6340    -2.0260    -2.9890 h1         1 1DX       0.039200
     69 HBCA         5.1610    -1.8720    -2.1090 h1         1 1DX       0.039200
     70 HBD          5.7760     0.8380     1.8630 h1         1 1DX       0.032200
     71 HBDA         5.8750    -0.9260     1.7770 h1         1 1DX       0.032200
     72 HBE          6.1320    -2.8260    -5.4290 h1         1 1DX       0.036700
     73 HBEA         5.0550    -3.5790    -4.2450 h1         1 1DX       0.036700
     74 HZD         14.2620    -2.0990     1.8430 ha         1 1DX       0.141000
     75 CBA          4.1760    -0.0040    -2.5070 c3         1 1DX      -0.033100
     76 OBF          5.4770     0.0000    -0.0000 os         1 1DX      -0.300900
@<TRIPOS>BOND
     1     1     5 1
     2     2    33 1
     3     3     5 ar
     4     3     9 ar
     5     4    34 1
     6     5     7 ar
     7     6    33 1
     8     7    40 ar
     9     8    34 1
    10     9    41 ar
    11    10    13 1
    12    11    12 ar
    13    11    14 ar
    14    12    13 1
    15    12    43 ar
    16    13    15 1
    17    13    17 1
    18    14    35 ar
    19    16    35 ar
    20    16    43 ar
    21    18    20 ar
    22    18    36 ar
    23    19    21 ar
    24    19    36 ar
    25    20    37 ar
    26    21    37 ar
    27    22    24 ar
    28    22    38 ar
    29    23    25 ar
    30    23    38 ar
    31    24    39 ar
    32    25    39 ar
    33    26    27 1
    34    26    28 1
    35    27    29 1
    36    28    33 1
    37    75    30 1
    38    75    40 1
    39    29    42 1
    40    30    42 1
    41    31    76 1
    42    31    37 1
    43    32    38 1
    44    32    42 1
    45    76    41 1
    46    34    39 1
    47    35    36 1
    48    40    41 ar
    49     3    44 1
    50     7    45 1
    51     9    46 1
    52    11    47 1
    53    14    48 1
    54    16    49 1
    55    18    50 1
    56    19    51 1
    57    20    52 1
    58    21    53 1
    59    22    54 1
    60    23    55 1
    61    24    56 1
    62    25    57 1
    63    26    58 1
    64    26    59 1
    65    27    60 1
    66    27    61 1
    67    28    62 1
    68    28    63 1
    69    75    64 1
    70    75    65 1
    71    29    66 1
    72    29    67 1
    73    30    68 1
    74    30    69 1
    75    31    70 1
    76    31    71 1
    77    32    72 1
    78    32    73 1
    79    43    74 1
@<TRIPOS>SUBSTRUCTURE
     1 1DX         1 TEMP              0 ****  ****    0 ROOT
