@<TRIPOS>MOLECULE
1DX
   76    79     1     0     0
SMALL
bcc


@<TRIPOS>ATOM
      1 FAA          0.0000     0.0000     0.0000 f          1 1DX      -0.139900
      2 OAA          3.1630     0.6400    -9.8290 o          1 1DX      -0.912800
      3 CAB          2.0420     0.0000     1.1990 ca         1 1DX      -0.106000
      4 OAB         11.5380    -3.3800    -1.3120 o          1 1DX      -0.899300
      5 CAC          1.3500     0.0000     0.0000 ca         1 1DX       0.044900
      6 OAC          4.9100     1.0060   -11.1320 o          1 1DX      -0.912800
      7 CAD          2.0420    -0.0010    -1.2000 ca         1 1DX      -0.095000
      8 OAD         10.1350    -4.2770     0.1570 o          1 1DX      -0.899300
      9 CAE          3.4240     0.0000     1.2000 ca         1 1DX      -0.198000
     10 FAE         15.6470    -0.5530     4.4550 f          1 1DX      -0.216967
     11 CAG         13.6530     1.1620     2.6240 ca         1 1DX      -0.057500
     12 CAH         14.3600    -0.0240     2.5320 ca         1 1DX      -0.243300
     13 CAI         15.7410    -0.1230     3.1270 c3         1 1DX       0.637200
     14 CAJ         12.3890     1.2570     2.0800 ca         1 1DX      -0.125500
     15 FAJ         16.3580     1.1320     3.0860 f          1 1DX      -0.216967
     16 CAK         12.5400    -1.0340     1.3480 ca         1 1DX      -0.125500
     17 FAK         16.5010    -1.0400     2.3930 f          1 1DX      -0.216967
     18 CAN          9.6320     1.4120     0.9430 ca         1 1DX      -0.087000
     19 CAO          9.7570    -0.9930     0.8370 ca         1 1DX      -0.087000
     20 CAP          8.2610     1.3280     1.0860 ca         1 1DX      -0.086000
     21 CAQ          8.3860    -1.0650     0.9800 ca         1 1DX      -0.086000
     22 CAR          6.7840    -3.6270    -2.2360 ca         1 1DX      -0.129500
     23 CAS          8.2430    -2.6340    -3.8620 ca         1 1DX      -0.129500
     24 CAT          7.8600    -3.8690    -1.4070 ca         1 1DX      -0.075500
     25 CAU          9.3280    -2.8700    -3.0430 ca         1 1DX      -0.075500
     26 CAV          4.3810    -0.1810    -7.6230 c3         1 1DX      -0.015400
     27 CAW          5.2790    -0.6250    -6.4660 c3         1 1DX      -0.042400
     28 CAX          5.2480     0.1920    -8.8260 c3         1 1DX      -0.133400
     29 CBB          4.4120    -0.9990    -5.2620 c3         1 1DX       0.131800
     30 CBC          4.5390    -1.4410    -2.8850 c3         1 1DX       0.132800
     31 CBD          6.1260    -0.0000     1.2730 c3         1 1DX       0.261700
     32 CBE          5.7880    -2.7960    -4.4030 c3         1 1DX       0.197100
     33 CBG          4.3640     0.6300    -9.9660 c          1 1DX       0.982600
     34 CBH         10.3010    -3.7460    -0.9240 c          1 1DX       0.980200
     35 CBI         11.8230     0.1570     1.4380 cp         1 1DX       0.061000
     36 CBJ         10.3890     0.2490     0.8170 cp         1 1DX      -0.038000
     37 CBK          7.6400     0.0930     1.1060 ca         1 1DX      -0.114300
     38 CBL          6.9740    -3.0110    -3.4600 ca         1 1DX      -0.102300
     39 CBM          9.1430    -3.4910    -1.8070 ca         1 1DX      -0.126600
     40 CBN          3.4240    -0.0010    -1.2010 ca         1 1DX      -0.085300
     41 CBO          4.1180     0.0010     0.0000 ca         1 1DX       0.154100
     42 NBP          5.2720    -1.4430    -4.1570 n3         1 1DX      -0.519600
     43 CZD         13.8040    -1.1190     1.8950 ca         1 1DX      -0.057500
     44 HAB          1.5000    -0.0000     2.1370 ha         1 1DX       0.105000
     45 HAD          1.5000     0.0290    -2.1370 ha         1 1DX       0.124000
     46 HAE          3.9650     0.0000     2.1390 ha         1 1DX       0.121000
     47 HAG         14.0750     2.0020     3.1630 ha         1 1DX       0.113500
     48 HAJ         12.3720     2.2630     1.6790 ha         1 1DX       0.151500
     49 HAK         12.3120    -1.9800     0.8720 ha         1 1DX       0.151500
     50 HAN         10.1180     2.3800     0.9290 ha         1 1DX       0.138000
     51 HAO         10.3400    -1.9000     0.7380 ha         1 1DX       0.138000
     52 HAP          7.6720     2.2320     1.1850 ha         1 1DX       0.110500
     53 HAQ          7.8940    -2.0300     0.9960 ha         1 1DX       0.110500
     54 HAR          5.7880    -3.9200    -1.9270 ha         1 1DX       0.094500
     55 HAS          8.3850    -2.1520    -4.8220 ha         1 1DX       0.094500
     56 HAT          7.7090    -4.3510    -0.4490 ha         1 1DX       0.119000
     57 HAU         10.3210    -2.5740    -3.3590 ha         1 1DX       0.119000
     58 HAV          3.7980     0.6790    -7.3170 hc         1 1DX       0.016200
     59 HAVA         3.7150    -0.9910    -7.8940 hc         1 1DX       0.016200
     60 HAW          5.9450     0.1850    -6.1940 hc         1 1DX       0.016200
     61 HAWA         5.8630    -1.4850    -6.7710 hc         1 1DX       0.016200
     62 HAX          5.8310    -0.6680    -9.1320 hc         1 1DX       0.006200
     63 HAXA         5.9140     1.0020    -8.5550 hc         1 1DX       0.006200
     64 HBA          5.0820     0.5820    -2.4030 hc         1 1DX       0.037200
     65 HBAA         3.5550     0.4280    -3.2820 hc         1 1DX       0.037200
     66 HBB          3.8380    -0.1350    -4.9480 h1         1 1DX       0.007700
     67 HBBA         3.7370    -1.8000    -5.5380 h1         1 1DX       0.007700
     68 HBC          3.6340    -2.0260    -2.9890 h1         1 1DX       0.019200
     69 HBCA         5.1610    -1.8720    -2.1090 h1         1 1DX       0.019200
     70 HBD          5.7760     0.8380     1.8630 h1         1 1DX      -0.003300
     71 HBDA         5.8750    -0.9260     1.7770 h1         1 1DX      -0.003300
     72 HBE          6.1320    -2.8260    -5.4290 h1         1 1DX       0.013200
     73 HBEA         5.0550    -3.5790    -4.2450 h1         1 1DX       0.013200
     74 HZD         14.2620    -2.0990     1.8430 ha         1 1DX       0.113500
     75 CBA          4.1760    -0.0040    -2.5070 c3         1 1DX       0.019900
     76 OBF          5.4770     0.0000    -0.0000 os         1 1DX      -0.275900
@<TRIPOS>BOND
     1     1     5 1   
     2     2    33 1   
     3     3     5 ar  
     4     3     9 ar  
     5     3    44 1   
     6     4    34 1   
     7     5     7 ar  
     8     6    33 1   
     9     7    40 ar  
    10     7    45 1   
    11     8    34 1   
    12     9    41 ar  
    13     9    46 1   
    14    10    13 1   
    15    11    12 ar  
    16    11    14 ar  
    17    11    47 1   
    18    12    13 1   
    19    12    43 ar  
    20    13    15 1   
    21    13    17 1   
    22    14    35 ar  
    23    14    48 1   
    24    16    35 ar  
    25    16    43 ar  
    26    16    49 1   
    27    18    20 ar  
    28    18    36 ar  
    29    18    50 1   
    30    19    21 ar  
    31    19    36 ar  
    32    19    51 1   
    33    20    37 ar  
    34    20    52 1   
    35    21    37 ar  
    36    21    53 1   
    37    22    24 ar  
    38    22    38 ar  
    39    22    54 1   
    40    23    25 ar  
    41    23    38 ar  
    42    23    55 1   
    43    24    39 ar  
    44    24    56 1   
    45    25    39 ar  
    46    25    57 1   
    47    26    27 1   
    48    26    28 1   
    49    26    58 1   
    50    26    59 1   
    51    27    29 1   
    52    27    60 1   
    53    27    61 1   
    54    28    33 1   
    55    28    62 1   
    56    28    63 1   
    57    29    42 1   
    58    29    66 1   
    59    29    67 1   
    60    30    42 1   
    61    30    68 1   
    62    30    69 1   
    63    30    75 1   
    64    31    37 1   
    65    31    70 1   
    66    31    71 1   
    67    31    76 1   
    68    32    38 1   
    69    32    42 1   
    70    32    72 1   
    71    32    73 1   
    72    34    39 1   
    73    35    36 1   
    74    40    41 ar  
    75    40    75 1   
    76    41    76 1   
    77    43    74 1   
    78    64    75 1   
    79    65    75 1   
@<TRIPOS>SUBSTRUCTURE
     1 1DX         1 TEMP              0 ****  ****    0 ROOT
