@<TRIPOS>MOLECULE
1DX
   77    80     1     0     0
SMALL
bcc


@<TRIPOS>ATOM
      1 FAA         -0.0060     0.0120     0.0500 f          1 1DX      -0.148900
      2 OAA          3.6980     0.5260    -8.3570 o          1 1DX      -0.512000
      3 CAB          2.1790     0.4450     0.9160 ca         1 1DX      -0.136000
      4 OAB         11.3050    -0.2810    -7.6420 o          1 1DX      -0.829300
      5 CAC          1.3340     0.0910    -0.1470 ca         1 1DX       0.084900
      6 OAC          4.2980     0.7010    -6.2710 oh         1 1DX      -0.598100
      7 CAD          1.8700    -0.1800    -1.4200 ca         1 1DX      -0.135000
      8 OAD         12.4660    -0.9040    -5.8370 o          1 1DX      -0.829300
      9 CAE          3.5530     0.5240     0.7070 ca         1 1DX      -0.184000
     10 FAE         16.6000     0.3910    -2.6640 f          1 1DX      -0.244633
     11 CAG         13.9840     1.8650    -1.4070 ca         1 1DX      -0.078000
     12 CAH         14.3500     1.3240    -2.6450 ca         1 1DX      -0.180300
     13 CAI         15.7990     1.4250    -3.0940 c3         1 1DX       0.689200
     14 CAJ         12.6690     1.7640    -0.9710 ca         1 1DX      -0.123000
     15 FAJ         15.9980     1.4580    -4.4500 f          1 1DX      -0.244633
     16 CAK         12.0820     0.5850    -3.0020 ca         1 1DX      -0.123000
     17 FAK         16.4620     2.5450    -2.6400 f          1 1DX      -0.244633
     18 CAN          9.2490     1.2290    -2.1650 ca         1 1DX      -0.113500
     19 CAO         10.0600     0.7350     0.0580 ca         1 1DX      -0.113500
     20 CAP          7.9370     1.1530    -1.7000 ca         1 1DX      -0.116000
     21 CAQ          8.7500     0.6490     0.5180 ca         1 1DX      -0.116000
     22 CAR          7.7260    -0.7640    -5.3720 ca         1 1DX      -0.150500
     23 CAS          8.9550    -2.3230    -3.9940 ca         1 1DX      -0.150500
     24 CAT          8.8860    -0.4940    -6.0960 ca         1 1DX      -0.114500
     25 CAU         10.1160    -2.0330    -4.7050 ca         1 1DX      -0.114500
     26 CAV          3.4620    -2.2480    -6.3940 c3         1 1DX      -0.066400
     27 CAW          4.0150    -3.4870    -5.7300 c3         1 1DX      -0.077400
     28 CAX          4.4650    -1.5420    -7.2860 c3         1 1DX      -0.180400
     29 CBB          5.2400    -3.2800    -4.8390 c3         1 1DX       0.164800
     30 CBC          4.1870    -1.8580    -3.1410 c3         1 1DX       0.172800
     31 CBD          6.2880     0.8110     0.1790 c3         1 1DX       0.178700
     32 CBE          6.5760    -1.8660    -3.4070 c3         1 1DX       0.211100
     33 CBG          4.1330    -0.0830    -7.3780 c          1 1DX       0.634100
     34 CBH         11.3820    -0.7400    -6.4720 c          1 1DX       0.908200
     35 CBI         11.7040     1.1210    -1.7660 cp         1 1DX      -0.033000
     36 CBJ         10.3240     1.0260    -1.2900 cp         1 1DX      -0.021000
     37 CBK          7.6790     0.8650    -0.3570 ca         1 1DX      -0.108300
     38 CBL          7.7560    -1.6690    -4.3060 ca         1 1DX      -0.123300
     39 CBM         10.0940    -1.1050    -5.7510 ca         1 1DX      -0.127600
     40 CBN          3.2430    -0.1050    -1.6370 ca         1 1DX      -0.073300
     41 CBO          4.0880     0.2490    -0.5570 ca         1 1DX       0.122100
     42 NBP          5.2880    -2.0410    -4.0790 n3         1 1DX      -0.748600
     43 CZD         13.4040     0.6860    -3.4460 ca         1 1DX      -0.078000
     44 CBA          3.8120    -0.3740    -2.9850 c3         1 1DX      -0.042100
     45 OBF          5.4360     0.2840    -0.8520 os         1 1DX      -0.318900
     46 HAB          1.7530     0.6580     1.9060 ha         1 1DX       0.144000
     47 HAD          1.1940    -0.4480    -2.2460 ha         1 1DX       0.150000
     48 HAE          4.2040     0.8040     1.5480 ha         1 1DX       0.141000
     49 HAG         14.7380     2.3730    -0.7880 ha         1 1DX       0.178500
     50 HAJ         12.3790     2.1960    -0.0030 ha         1 1DX       0.156000
     51 HAK         11.3570     0.0580    -3.6550 ha         1 1DX       0.156000
     52 HAN          9.4440     1.4400    -3.2300 ha         1 1DX       0.147000
     53 HAO         10.8960     0.5600     0.7510 ha         1 1DX       0.147000
     54 HAP          7.0960     1.3060    -2.3950 ha         1 1DX       0.134500
     55 HAQ          8.5570     0.4080     1.5740 ha         1 1DX       0.134500
     56 HAR          6.7890    -0.2490    -5.6290 ha         1 1DX       0.109500
     57 HAS          8.9840    -3.0500    -3.1700 ha         1 1DX       0.109500
     58 HAT          8.8770     0.2090    -6.9450 ha         1 1DX       0.152000
     59 HAU         11.0740    -2.5140    -4.4490 ha         1 1DX       0.152000
     60 HAV          2.5680    -2.5380    -7.0090 hc         1 1DX       0.043700
     61 HAVA         3.0950    -1.5360    -5.6040 hc         1 1DX       0.043700
     62 HAW          4.3070    -4.2310    -6.5180 hc         1 1DX       0.038700
     63 HAWA         3.1920    -3.9520    -5.1230 hc         1 1DX       0.038700
     64 HAX          4.4570    -1.9870    -8.3150 hc         1 1DX       0.089700
     65 HAXA         5.5080    -1.6460    -6.8750 hc         1 1DX       0.089700
     66 HBA          3.0710    -0.0960    -3.7810 hc         1 1DX       0.065200
     67 HBAA         4.7150     0.2810    -3.1310 hc         1 1DX       0.065200
     68 HBB          5.3150    -4.1820    -4.1610 h1         1 1DX       0.042700
     69 HBBA         6.1620    -3.2790    -5.4920 h1         1 1DX       0.042700
     70 HBC          4.4410    -2.2750    -2.1220 h1         1 1DX       0.034200
     71 HBCA         3.2800    -2.4150    -3.5080 h1         1 1DX       0.034200
     72 HBD          5.9370     1.8420     0.4560 h1         1 1DX       0.043200
     73 HBDA         6.2310     0.1380     1.0760 h1         1 1DX       0.043200
     74 HBE          6.7800    -2.7420    -2.7190 h1         1 1DX       0.041700
     75 HBEA         6.4940    -0.9450    -2.7520 h1         1 1DX       0.041700
     76 HZD         13.6650     0.2540    -4.4380 ha         1 1DX       0.178500
     77 HBP1         4.6670     0.1730    -5.5450 ho         1 1DX       0.446000
@<TRIPOS>BOND
     1     1     5 1   
     2     2    33 2   
     3     3     5 ar  
     4     3     9 ar  
     5     3    46 1   
     6     4    34 1   
     7     5     7 ar  
     8     6    33 1   
     9     6    77 1   
    10     7    40 ar  
    11     7    47 1   
    12     8    34 1   
    13     9    41 ar  
    14     9    48 1   
    15    10    13 1   
    16    11    12 ar  
    17    11    14 ar  
    18    11    49 1   
    19    12    13 1   
    20    12    43 ar  
    21    13    15 1   
    22    13    17 1   
    23    14    35 ar  
    24    14    50 1   
    25    16    35 ar  
    26    16    43 ar  
    27    16    51 1   
    28    18    20 ar  
    29    18    36 ar  
    30    18    52 1   
    31    19    21 ar  
    32    19    36 ar  
    33    19    53 1   
    34    20    37 ar  
    35    20    54 1   
    36    21    37 ar  
    37    21    55 1   
    38    22    24 ar  
    39    22    38 ar  
    40    22    56 1   
    41    23    25 ar  
    42    23    38 ar  
    43    23    57 1   
    44    24    39 ar  
    45    24    58 1   
    46    25    39 ar  
    47    25    59 1   
    48    26    27 1   
    49    26    28 1   
    50    26    60 1   
    51    26    61 1   
    52    27    29 1   
    53    27    62 1   
    54    27    63 1   
    55    28    33 1   
    56    28    64 1   
    57    28    65 1   
    58    29    42 1   
    59    29    68 1   
    60    29    69 1   
    61    30    42 1   
    62    30    44 1   
    63    30    70 1   
    64    30    71 1   
    65    31    37 1   
    66    31    45 1   
    67    31    72 1   
    68    31    73 1   
    69    32    38 1   
    70    32    42 1   
    71    32    74 1   
    72    32    75 1   
    73    34    39 1   
    74    35    36 1   
    75    40    41 ar  
    76    40    44 1   
    77    41    45 1   
    78    43    76 1   
    79    44    66 1   
    80    44    67 1   
@<TRIPOS>SUBSTRUCTURE
     1 1DX         1 TEMP              0 ****  ****    0 ROOT
