@<TRIPOS>MOLECULE
1DY
   55    58     1     0     0
SMALL
bcc


@<TRIPOS>ATOM
      1 N1           0.0860     1.4440     0.2530 ns         1 1DY      -0.490400
      2 C1           0.4330     2.4450     1.1760 c          1 1DY       0.705100
      3 O1           0.5740     3.6140     0.7750 o          1 1DY      -0.618500
      4 C2           0.6000     2.0060     2.5740 ca         1 1DY      -0.190600
      5 C3           0.9500     2.9290     3.5680 ca         1 1DY      -0.059000
      6 C4           1.1030     2.5050     4.8790 ca         1 1DY      -0.154000
      7 C5           0.9100     1.1560     5.2070 ca         1 1DY      -0.096000
      8 C6           0.5650     0.2270     4.2390 ca         1 1DY      -0.125000
      9 C7           0.4020     0.6360     2.8920 ca         1 1DY       0.180400
     10 N2           0.0550    -0.3020     1.9120 nc         1 1DY      -0.632100
     11 C8          -0.0810     0.1200     0.6660 cd         1 1DY       0.486900
     12 C9          -0.4480    -0.8880    -0.4140 c3         1 1DY      -0.113700
     13 C10         -1.9380    -0.8790    -0.6880 c3         1 1DY      -0.157400
     14 C11         -2.3420     0.2410    -1.6370 c          1 1DY       0.667100
     15 O2          -1.4900     0.9480    -2.2100 o          1 1DY      -0.603100
     16 N3          -3.7060     0.3970    -1.8300 ns         1 1DY      -0.466100
     17 C12         -4.3540     1.3340    -2.6510 ca         1 1DY       0.087600
     18 C13         -5.7670     1.4280    -2.5720 ca         1 1DY      -0.176500
     19 C14         -6.4600     2.3330    -3.3650 ca         1 1DY      -0.063000
     20 C15         -3.6710     2.1710    -3.5600 ca         1 1DY      -0.176500
     21 C16         -4.3810     3.0670    -4.3520 ca         1 1DY      -0.063000
     22 C17         -5.7730     3.1630    -4.2560 ca         1 1DY      -0.172600
     23 C18         -6.4790     4.1300    -5.1460 c          1 1DY       0.682700
     24 O3          -6.1250     4.2880    -6.3300 o          1 1DY      -0.590100
     25 N4          -7.5330     4.8240    -4.5670 ns         1 1DY      -0.459100
     26 C19         -8.3180     5.8220    -5.1660 ca         1 1DY       0.053600
     27 C20         -8.3430     6.0520    -6.5550 ca         1 1DY      -0.133000
     28 C21         -9.1570     7.0430    -7.1010 ca         1 1DY      -0.132000
     29 C22         -9.9700     7.8250    -6.2890 ca         1 1DY      -0.127000
     30 C23         -9.9770     7.6190    -4.9100 ca         1 1DY      -0.172000
     31 C24         -9.1640     6.6360    -4.3480 ca         1 1DY       0.069100
     32 O4          -9.1540     6.3550    -2.9870 os         1 1DY      -0.350900
     33 C25         -9.6520     7.3810    -2.1380 c3         1 1DY       0.120700
     34 H1          -0.0540     1.6870    -0.7080 hn         1 1DY       0.361500
     35 H2           1.0970     3.9850     3.2860 ha         1 1DY       0.159000
     36 H3           1.3780     3.2250     5.6640 ha         1 1DY       0.140000
     37 H4           1.0360     0.8310     6.2520 ha         1 1DY       0.136000
     38 H5           0.4170    -0.8300     4.5090 ha         1 1DY       0.151000
     39 H6           0.1220    -0.6580    -1.3550 hc         1 1DY       0.089200
     40 H7          -0.1470    -1.9160    -0.0760 hc         1 1DY       0.089200
     41 H8          -2.2230    -1.8550    -1.1650 hc         1 1DY       0.081200
     42 H9          -2.5030    -0.7900     0.2780 hc         1 1DY       0.081200
     43 H10         -4.3080    -0.1910    -1.2960 hn         1 1DY       0.319500
     44 H11         -6.3330     0.7840    -1.8820 ha         1 1DY       0.156000
     45 H12         -7.5580     2.3740    -3.2920 ha         1 1DY       0.151000
     46 H13         -2.5740     2.1260    -3.6550 ha         1 1DY       0.156000
     47 H14         -3.8440     3.7050    -5.0740 ha         1 1DY       0.151000
     48 H15         -7.6680     4.7120    -3.5850 hn         1 1DY       0.332500
     49 H16         -7.7070     5.4510    -7.2270 ha         1 1DY       0.175000
     50 H17         -9.1480     7.2020    -8.1900 ha         1 1DY       0.137000
     51 H18        -10.6110     8.6040    -6.7270 ha         1 1DY       0.134000
     52 H19        -10.6260     8.2360    -4.2720 ha         1 1DY       0.137000
     53 H20         -9.1840     8.3660    -2.3760 h1         1 1DY       0.044367
     54 H21        -10.7650     7.4450    -2.2230 h1         1 1DY       0.044367
     55 H22         -9.3580     7.0390    -1.1130 h1         1 1DY       0.044367
@<TRIPOS>BOND
     1     1     2 1   
     2     1    11 1   
     3     1    34 1   
     4     2     3 2   
     5     2     4 1   
     6     4     5 ar  
     7     4     9 ar  
     8     5     6 ar  
     9     5    35 1   
    10     6     7 ar  
    11     6    36 1   
    12     7     8 ar  
    13     7    37 1   
    14     8     9 ar  
    15     8    38 1   
    16     9    10 1   
    17    10    11 2   
    18    11    12 1   
    19    12    13 1   
    20    12    39 1   
    21    12    40 1   
    22    13    14 1   
    23    13    41 1   
    24    13    42 1   
    25    14    15 2   
    26    14    16 1   
    27    16    17 1   
    28    16    43 1   
    29    17    18 ar  
    30    17    20 ar  
    31    18    19 ar  
    32    18    44 1   
    33    19    22 ar  
    34    19    45 1   
    35    20    21 ar  
    36    20    46 1   
    37    21    22 ar  
    38    21    47 1   
    39    22    23 1   
    40    23    24 2   
    41    23    25 1   
    42    25    26 1   
    43    25    48 1   
    44    26    27 ar  
    45    26    31 ar  
    46    27    28 ar  
    47    27    49 1   
    48    28    29 ar  
    49    28    50 1   
    50    29    30 ar  
    51    29    51 1   
    52    30    31 ar  
    53    30    52 1   
    54    31    32 1   
    55    32    33 1   
    56    33    53 1   
    57    33    54 1   
    58    33    55 1   
@<TRIPOS>SUBSTRUCTURE
     1 1DY         1 TEMP              0 ****  ****    0 ROOT
