@<TRIPOS>MOLECULE
molecule
   55    58     1     0     0
SMALL
bcc


@<TRIPOS>ATOM
      1 N1           0.0000     0.0000     0.0000 ns         1 1DY      -0.470400
      2 C1           1.3530     0.0000     0.0000 c          1 1DY       0.708100
      3 O1           1.9860     0.0000    -1.0400 o          1 1DY      -0.618500
      4 C2           2.0300     0.0000     1.3060 ca         1 1DY      -0.206600
      5 C3           3.4190     0.0010     1.4160 ca         1 1DY      -0.050000
      6 C4           4.0010     0.0010     2.6650 ca         1 1DY      -0.154000
      7 C5           3.2140     0.0010     3.8100 ca         1 1DY      -0.091000
      8 C6           1.8410     0.0010     3.7220 ca         1 1DY      -0.125000
      9 C7           1.2280     0.0000     2.4680 ca         1 1DY       0.197400
     10 N2          -0.1220     0.0000     2.3350 nc         1 1DY      -0.664100
     11 C8          -0.6920     0.0050     1.1690 cd         1 1DY       0.497900
     12 C9          -2.1980     0.0060     1.1080 c3         1 1DY      -0.102700
     13 C10         -2.7650     0.0110     2.5300 c3         1 1DY      -0.140400
     14 C11         -4.2710     0.0120     2.4690 c          1 1DY       0.656100
     15 O2          -4.8350     0.0070     1.3960 o          1 1DY      -0.598100
     16 N3          -4.9910     0.0180     3.6080 ns         1 1DY      -0.477100
     17 C12         -6.3810     0.1180     3.5540 ca         1 1DY       0.076600
     18 C13         -7.0810    -0.4920     2.5180 ca         1 1DY      -0.156500
     19 C14         -8.4530    -0.3990     2.4650 ca         1 1DY      -0.067500
     20 C15         -7.0650     0.8220     4.5410 ca         1 1DY      -0.156500
     21 C16         -8.4370     0.9220     4.4910 ca         1 1DY      -0.067500
     22 C17         -9.1430     0.3070     3.4540 ca         1 1DY      -0.167600
     23 C18        -10.6150     0.4090     3.4000 c          1 1DY       0.676700
     24 O3         -11.2280    -0.1230     2.4940 o          1 1DY      -0.602100
     25 N4         -11.2790     1.0910     4.3540 ns         1 1DY      -0.461100
     26 C19        -12.6800     1.0900     4.3690 ca         1 1DY       0.037600
     27 C20        -13.3800     0.0430     3.7870 ca         1 1DY      -0.106000
     28 C21        -14.7630     0.0450     3.8040 ca         1 1DY      -0.145000
     29 C22        -15.4490     1.0860     4.4000 ca         1 1DY      -0.113000
     30 C23        -14.7580     2.1320     4.9810 ca         1 1DY      -0.201000
     31 C24        -13.3720     2.1370     4.9740 ca         1 1DY       0.099100
     32 O4         -12.6900     3.1640     5.5460 os         1 1DY      -0.343900
     33 C25        -13.4660     4.2080     6.1360 c3         1 1DY       0.132700
     34 H1          -0.4960     0.0030    -0.8690 hn         1 1DY       0.340500
     35 H2           4.0370     0.0010     0.5260 ha         1 1DY       0.156000
     36 H3           5.0800     0.0010     2.7550 ha         1 1DY       0.137000
     37 H4           3.6880     0.0010     4.7840 ha         1 1DY       0.135000
     38 H5           1.2380     0.0010     4.6230 ha         1 1DY       0.146000
     39 H6          -2.5390    -0.8810     0.5870 hc         1 1DY       0.081200
     40 H7          -2.5380     0.8880     0.5800 hc         1 1DY       0.081200
     41 H8          -2.4260    -0.8710     3.0580 hc         1 1DY       0.082700
     42 H9          -2.4240     0.8980     3.0510 hc         1 1DY       0.082700
     43 H10         -4.5300    -0.0730     4.4920 hn         1 1DY       0.329500
     44 H11         -6.5460    -1.0390     1.7520 ha         1 1DY       0.152500
     45 H12         -8.9980    -0.8750     1.6590 ha         1 1DY       0.146000
     46 H13         -6.5170     1.2980     5.3450 ha         1 1DY       0.152500
     47 H14         -8.9690     1.4700     5.2590 ha         1 1DY       0.146000
     48 H15        -10.7740     1.6520     5.0110 hn         1 1DY       0.334500
     49 H16        -12.8450    -0.7740     3.3190 ha         1 1DY       0.178000
     50 H17        -15.3090    -0.7730     3.3490 ha         1 1DY       0.135000
     51 H18        -16.5320     1.0840     4.4090 ha         1 1DY       0.129000
     52 H19        -15.3000     2.9460     5.4490 ha         1 1DY       0.135000
     53 H20        -14.0980     4.6600     5.3810 h1         1 1DY       0.041700
     54 H21        -14.0840     3.7970     6.9250 h1         1 1DY       0.041700
     55 H22        -12.8050     4.9600     6.5510 h1         1 1DY       0.041700
@<TRIPOS>BOND
     1    33    32 1   
     2    30    29 ar  
     3    30    31 ar  
     4    29    28 ar  
     5    32    31 1   
     6    31    26 ar  
     7    28    27 ar  
     8    26    27 ar  
     9    26    25 1   
    10    25    23 1   
    11    23    24 2   
    12    23    22 1   
    13    19    22 ar  
    14    19    18 ar  
    15    22    21 ar  
    16    18    17 ar  
    17    21    20 ar  
    18    17    20 ar  
    19    17    16 1   
    20    16    14 1   
    21    14    13 1   
    22    14    15 2   
    23    13    12 1   
    24    12    11 1   
    25    11     1 1   
    26    11    10 2   
    27     1     2 1   
    28    10     9 1   
    29     2     3 2   
    30     2     4 1   
    31     9     4 ar  
    32     9     8 ar  
    33     4     5 ar  
    34     8     7 ar  
    35     5     6 ar  
    36     7     6 ar  
    37     1    34 1   
    38     5    35 1   
    39     6    36 1   
    40     7    37 1   
    41     8    38 1   
    42    12    39 1   
    43    12    40 1   
    44    13    41 1   
    45    13    42 1   
    46    16    43 1   
    47    18    44 1   
    48    19    45 1   
    49    20    46 1   
    50    21    47 1   
    51    25    48 1   
    52    27    49 1   
    53    28    50 1   
    54    29    51 1   
    55    30    52 1   
    56    33    53 1   
    57    33    54 1   
    58    33    55 1   
@<TRIPOS>SUBSTRUCTURE
     1 1DY         1 TEMP              0 ****  ****    0 ROOT
