@<TRIPOS>MOLECULE
1DY
   55    58     1     0     0
SMALL
bcc


@<TRIPOS>ATOM
      1 N1           0.0000     0.0000     0.0000 ns         1 1DY      -0.004400
      2 C1           1.3530     0.0000     0.0000 c          1 1DY       0.618100
      3 O1           1.9860     0.0000    -1.0400 o          1 1DY      -0.659500
      4 C2           2.0300     0.0000     1.3060 ca         1 1DY      -0.216600
      5 C3           3.4190     0.0010     1.4160 ca         1 1DY      -0.013000
      6 C4           4.0010     0.0010     2.6650 ca         1 1DY      -0.129000
      7 C5           3.2140     0.0010     3.8100 ca         1 1DY      -0.062000
      8 C6           1.8410     0.0010     3.7220 ca         1 1DY      -0.101000
      9 C7           1.2280     0.0000     2.4680 ca         1 1DY       0.155400
     10 N2          -0.1220     0.0000     2.3350 nc         1 1DY      -0.557100
     11 C8          -0.6920     0.0050     1.1690 cd         1 1DY       0.290900
     12 C9          -2.1980     0.0060     1.1080 c3         1 1DY      -0.043700
     13 C10         -2.7650     0.0110     2.5300 c3         1 1DY      -0.088400
     14 C11         -4.2710     0.0120     2.4690 c          1 1DY       0.559100
     15 O2          -4.8350     0.0070     1.3960 o          1 1DY      -0.638100
     16 N3          -4.9910     0.0180     3.6080 ns         1 1DY      -0.032100
     17 C12         -6.3810     0.1180     3.5540 ca         1 1DY      -0.070400
     18 C13         -7.0810    -0.4920     2.5180 ca         1 1DY      -0.131000
     19 C14         -8.4530    -0.3990     2.4650 ca         1 1DY      -0.038500
     20 C15         -7.0650     0.8220     4.5410 ca         1 1DY      -0.131000
     21 C16         -8.4370     0.9220     4.4910 ca         1 1DY      -0.038500
     22 C17         -9.1430     0.3070     3.4540 ca         1 1DY      -0.176600
     23 C18        -10.6150     0.4090     3.4000 c          1 1DY       0.585700
     24 O3         -11.2280    -0.1230     2.4940 o          1 1DY      -0.642100
     25 N4         -11.2790     1.0910     4.3540 ns         1 1DY      -0.016100
     26 C19        -12.6800     1.0900     4.3690 ca         1 1DY      -0.118400
     27 C20        -13.3800     0.0430     3.7870 ca         1 1DY      -0.085000
     28 C21        -14.7630     0.0450     3.8040 ca         1 1DY      -0.118000
     29 C22        -15.4490     1.0860     4.4000 ca         1 1DY      -0.077000
     30 C23        -14.7580     2.1320     4.9810 ca         1 1DY      -0.191000
     31 C24        -13.3720     2.1370     4.9740 ca         1 1DY       0.112100
     32 O4         -12.6900     3.1640     5.5460 os         1 1DY      -0.322900
     33 C25        -13.4660     4.2080     6.1360 c3         1 1DY       0.250700
     34 H1          -0.4960     0.0030    -0.8690 hn         1 1DY       0.185500
     35 H2           4.0370     0.0010     0.5260 ha         1 1DY       0.125000
     36 H3           5.0800     0.0010     2.7550 ha         1 1DY       0.108000
     37 H4           3.6880     0.0010     4.7840 ha         1 1DY       0.103000
     38 H5           1.2380     0.0010     4.6230 ha         1 1DY       0.117000
     39 H6          -2.5390    -0.8810     0.5870 hc         1 1DY       0.043200
     40 H7          -2.5380     0.8880     0.5800 hc         1 1DY       0.043200
     41 H8          -2.4260    -0.8710     3.0580 hc         1 1DY       0.046200
     42 H9          -2.4240     0.8980     3.0510 hc         1 1DY       0.046200
     43 H10         -4.5300    -0.0730     4.4920 hn         1 1DY       0.171500
     44 H11         -6.5460    -1.0390     1.7520 ha         1 1DY       0.128500
     45 H12         -8.9980    -0.8750     1.6590 ha         1 1DY       0.116000
     46 H13         -6.5170     1.2980     5.3450 ha         1 1DY       0.128500
     47 H14         -8.9690     1.4700     5.2590 ha         1 1DY       0.116000
     48 H15        -10.7740     1.6520     5.0110 hn         1 1DY       0.179500
     49 H16        -12.8450    -0.7740     3.3190 ha         1 1DY       0.157000
     50 H17        -15.3090    -0.7730     3.3490 ha         1 1DY       0.106000
     51 H18        -16.5320     1.0840     4.4090 ha         1 1DY       0.100000
     52 H19        -15.3000     2.9460     5.4490 ha         1 1DY       0.119000
     53 H20        -14.0980     4.6600     5.3810 h1         1 1DY      -0.001633
     54 H21        -14.0840     3.7970     6.9250 h1         1 1DY      -0.001633
     55 H22        -12.8050     4.9600     6.5510 h1         1 1DY      -0.001633
@<TRIPOS>BOND
     1     1     2 1   
     2     1    11 1   
     3     1    34 1   
     4     2     3 2   
     5     2     4 1   
     6     4     5 ar  
     7     4     9 ar  
     8     5     6 ar  
     9     5    35 1   
    10     6     7 ar  
    11     6    36 1   
    12     7     8 ar  
    13     7    37 1   
    14     8     9 ar  
    15     8    38 1   
    16     9    10 1   
    17    10    11 2   
    18    11    12 1   
    19    12    13 1   
    20    12    39 1   
    21    12    40 1   
    22    13    14 1   
    23    13    41 1   
    24    13    42 1   
    25    14    15 2   
    26    14    16 1   
    27    16    17 1   
    28    16    43 1   
    29    17    18 ar  
    30    17    20 ar  
    31    18    19 ar  
    32    18    44 1   
    33    19    22 ar  
    34    19    45 1   
    35    20    21 ar  
    36    20    46 1   
    37    21    22 ar  
    38    21    47 1   
    39    22    23 1   
    40    23    24 2   
    41    23    25 1   
    42    25    26 1   
    43    25    48 1   
    44    26    27 ar  
    45    26    31 ar  
    46    27    28 ar  
    47    27    49 1   
    48    28    29 ar  
    49    28    50 1   
    50    29    30 ar  
    51    29    51 1   
    52    30    31 ar  
    53    30    52 1   
    54    31    32 1   
    55    32    33 1   
    56    33    53 1   
    57    33    54 1   
    58    33    55 1   
@<TRIPOS>SUBSTRUCTURE
     1 1DY         1 TEMP              0 ****  ****    0 ROOT
