@<TRIPOS>MOLECULE
1DZ
   34    36     1     0     0
SMALL
bcc


@<TRIPOS>ATOM
      1 C01         -0.0350     0.0030    -0.0380 cc         1 1DZ      -0.109300
      2 N02          1.3720    -0.2320    -0.0240 na         1 1DZ       0.116300
      3 N03          1.8320    -0.3340     1.2560 nc         1 1DZ      -0.484800
      4 C04          0.7730    -0.2170     2.0800 cd         1 1DZ       0.295800
      5 C05         -0.4390     0.0060     1.2990 cd         1 1DZ      -0.231300
      6 C06         -0.8910     0.0930    -1.2030 ca         1 1DZ       0.014000
      7 C07          2.2590    -0.0600    -1.1140 ca         1 1DZ       0.061800
      8 C08         -1.9860     0.9730    -1.1760 ca         1 1DZ      -0.122500
      9 C09         -2.8610     1.0400    -2.2570 ca         1 1DZ      -0.136500
     10 C10         -2.6600     0.2320    -3.3760 ca         1 1DZ      -0.148000
     11 C11         -1.5770    -0.6470    -3.4090 ca         1 1DZ      -0.136500
     12 C12         -0.6980    -0.7190    -2.3310 ca         1 1DZ      -0.122500
     13 C13          3.4740    -0.7850    -1.1500 ca         1 1DZ      -0.131000
     14 C14          4.3430    -0.6260    -2.2240 ca         1 1DZ      -0.124000
     15 C15          4.0370     0.2390    -3.2720 ca         1 1DZ      -0.161000
     16 C16          2.8470     0.9710    -3.2440 ca         1 1DZ      -0.072300
     17 C17          1.9660     0.8290    -2.1680 ca         1 1DZ      -0.161000
     18 C18          2.5180     1.9170    -4.3360 c3         1 1DZ      -0.047800
     19 C19          0.7710    -0.3000     3.6070 c          1 1DZ       0.834100
     20 O20         -0.0950     0.4070     4.1900 o          1 1DZ      -0.808300
     21 O21          1.5910    -1.0680     4.1670 o          1 1DZ      -0.808300
     22 H051        -1.4320     0.1320     1.7160 ha         1 1DZ       0.172000
     23 H081        -2.1470     1.6040    -0.2880 ha         1 1DZ       0.144500
     24 H091        -3.7150     1.7320    -2.2250 ha         1 1DZ       0.121500
     25 H101        -3.3520     0.2860    -4.2270 ha         1 1DZ       0.118000
     26 H111        -1.4170    -1.2890    -4.2870 ha         1 1DZ       0.121500
     27 H121         0.1550    -1.4150    -2.3600 ha         1 1DZ       0.144500
     28 H131         3.7400    -1.4650    -0.3240 ha         1 1DZ       0.163000
     29 H141         5.2850    -1.1930    -2.2420 ha         1 1DZ       0.123000
     30 H151         4.7320     0.3510    -4.1150 ha         1 1DZ       0.119000
     31 H171         1.0360     1.4190    -2.1520 ha         1 1DZ       0.147000
     32 H181         2.7060     2.9680    -4.0010 hc         1 1DZ       0.037700
     33 H183         3.1410     1.7210    -5.2420 hc         1 1DZ       0.037700
     34 H182         1.4400     1.8310    -4.6220 hc         1 1DZ       0.037700
@<TRIPOS>BOND
     1     1     2 1   
     2     1     5 2   
     3     1     6 1   
     4     2     3 1   
     5     2     7 1   
     6     3     4 2   
     7     4     5 1   
     8     4    19 1   
     9     5    22 1   
    10     6     8 ar  
    11     6    12 ar  
    12     7    13 ar  
    13     7    17 ar  
    14     8     9 ar  
    15     8    23 1   
    16     9    10 ar  
    17     9    24 1   
    18    10    11 ar  
    19    10    25 1   
    20    11    12 ar  
    21    11    26 1   
    22    12    27 1   
    23    13    14 ar  
    24    13    28 1   
    25    14    15 ar  
    26    14    29 1   
    27    15    16 ar  
    28    15    30 1   
    29    16    17 ar  
    30    16    18 1   
    31    17    31 1   
    32    18    32 1   
    33    18    33 1   
    34    18    34 1   
    35    19    20 1   
    36    19    21 1   
@<TRIPOS>SUBSTRUCTURE
     1 1DZ         1 TEMP              0 ****  ****    0 ROOT
