@<TRIPOS>MOLECULE
molecule
   34    36     1     0     0
SMALL
bcc


@<TRIPOS>ATOM
      1 C01          0.0000     0.0000     0.0000 cc         1 1DZ      -0.149300
      2 N02          1.3670     0.0000     0.0000 na         1 1DZ       0.187300
      3 N03          1.8050     0.0000     1.2070 nc         1 1DZ      -0.486800
      4 C04          0.8000    -0.0000     2.0620 cd         1 1DZ       0.310800
      5 C05         -0.3950     0.0000     1.3080 cd         1 1DZ      -0.244300
      6 C06         -0.8820     0.0060    -1.1880 ca         1 1DZ       0.016000
      7 C07          2.1700     0.0000    -1.1470 ca         1 1DZ       0.046800
      8 C08         -0.4340    -0.5270    -2.3970 ca         1 1DZ      -0.126500
      9 C09         -1.2630    -0.5240    -3.5000 ca         1 1DZ      -0.133500
     10 C10         -2.5370     0.0070    -3.4090 ca         1 1DZ      -0.150000
     11 C11         -2.9880     0.5370    -2.2120 ca         1 1DZ      -0.133500
     12 C12         -2.1690     0.5400    -1.1030 ca         1 1DZ      -0.126500
     13 C13          1.8830     0.8620    -2.1970 ca         1 1DZ      -0.142000
     14 C14          2.6780     0.8610    -3.3270 ca         1 1DZ      -0.127000
     15 C15          3.7590     0.0020    -3.4130 ca         1 1DZ      -0.148000
     16 C16          4.0470    -0.8570    -2.3680 ca         1 1DZ      -0.083300
     17 C17          3.2600    -0.8570    -1.2340 ca         1 1DZ      -0.116000
     18 C18          5.2260    -1.7910    -2.4660 c3         1 1DZ      -0.043800
     19 C19          0.9040    -0.0020     3.5340 c          1 1DZ       0.806100
     20 O20         -0.1030    -0.0020     4.2140 o          1 1DZ      -0.821800
     21 O21          2.1150    -0.0020     4.1230 o          1 1DZ      -0.821800
     22 H051        -1.3800    -0.2600     1.6760 ha         1 1DZ       0.166000
     23 H081         0.5640    -0.9430    -2.4700 ha         1 1DZ       0.145000
     24 H091        -0.9150    -0.9380    -4.4380 ha         1 1DZ       0.119500
     25 H101        -3.1840     0.0070    -4.2770 ha         1 1DZ       0.115000
     26 H111        -3.9870     0.9510    -2.1470 ha         1 1DZ       0.119500
     27 H121        -2.5230     0.9560    -0.1680 ha         1 1DZ       0.145000
     28 H131         1.0370     1.5350    -2.1300 ha         1 1DZ       0.149000
     29 H141         2.4550     1.5330    -4.1460 ha         1 1DZ       0.125000
     30 H151         4.3790     0.0010    -4.3000 ha         1 1DZ       0.120000
     31 H171         3.4870    -1.5300    -0.4160 ha         1 1DZ       0.162000
     32 H181         5.5640    -1.8390    -3.4930 hc         1 1DZ       0.040367
     33 H183         6.0290    -1.4260    -1.8370 hc         1 1DZ       0.040367
     34 H182         4.9310    -2.7800    -2.1360 hc         1 1DZ       0.040367
@<TRIPOS>BOND
     1     9    10 ar  
     2     9     8 ar  
     3    10    11 ar  
     4     8     6 ar  
     5    11    12 ar  
     6     6    12 ar  
     7     6     1 1   
     8     5     1 2   
     9     5     4 1   
    10     1     2 1   
    11    20    19 1   
    12    18    16 1   
    13    17    16 ar  
    14    17     7 ar  
    15     4    19 1   
    16     4     3 2   
    17     2     3 1   
    18     2     7 1   
    19    19    21 1   
    20    16    15 ar  
    21     7    13 ar  
    22    15    14 ar  
    23    13    14 ar  
    24     5    22 1   
    25     8    23 1   
    26     9    24 1   
    27    10    25 1   
    28    11    26 1   
    29    12    27 1   
    30    13    28 1   
    31    14    29 1   
    32    15    30 1   
    33    17    31 1   
    34    18    32 1   
    35    18    33 1   
    36    18    34 1   
@<TRIPOS>SUBSTRUCTURE
     1 1DZ         1 TEMP              0 ****  ****    0 ROOT
