@<TRIPOS>MOLECULE
1DZ
   34    36     1     0     0
SMALL
bcc


@<TRIPOS>ATOM
      1 C01        -0.0580   -0.0500   -0.0710 cc        1 1DZ     -0.108300
      2 N02         1.3530   -0.2610   -0.0920 na        1 1DZ      0.116300
      3 N03         1.8530   -0.3080    1.1750 nc        1 1DZ     -0.485800
      4 C04         0.8190   -0.1750    2.0280 cd        1 1DZ      0.295800
      5 C05        -0.4200   -0.0010    1.2770 cd        1 1DZ     -0.231300
      6 C06        -0.9510   -0.0170   -1.2110 ca        1 1DZ      0.014000
      7 C07         2.2020   -0.1290   -1.2170 ca        1 1DZ      0.061800
      8 C08        -0.7790   -0.8670   -2.3140 ca        1 1DZ     -0.123000
      9 C09        -1.6930   -0.8470   -3.3660 ca        1 1DZ     -0.136500
     10 C10        -2.7880    0.0150   -3.3310 ca        1 1DZ     -0.148000
     11 C11        -2.9680    0.8600   -2.2360 ca        1 1DZ     -0.136500
     12 C12        -2.0590    0.8460   -1.1810 ca        1 1DZ     -0.123000
     13 C13         1.8620    0.7050   -2.3040 ca        1 1DZ     -0.164000
     14 C14         2.7110    0.7990   -3.4020 ca        1 1DZ     -0.120000
     15 C15         3.9090    0.0920   -3.4410 ca        1 1DZ     -0.162000
     16 C16         4.2710   -0.7230   -2.3630 ca        1 1DZ     -0.075300
     17 C17         3.4250   -0.8370   -1.2580 ca        1 1DZ     -0.130000
     18 C18         5.5570   -1.4600   -2.3780 c3        1 1DZ     -0.048800
     19 C19         0.8660   -0.1990    3.5550 c         1 1DZ      0.834100
     20 O20         0.0090    0.5180    4.1390 o         1 1DZ     -0.808300
     21 O21         1.7150   -0.9340    4.1180 o         1 1DZ     -0.808300
     22 H051       -1.4020    0.1270    1.7200 ha        1 1DZ      0.172000
     23 H081        0.0840   -1.5490   -2.3450 ha        1 1DZ      0.144500
     24 H091       -1.5490   -1.5180   -4.2250 ha        1 1DZ      0.121500
     25 H101       -3.5070    0.0270   -4.1610 ha        1 1DZ      0.118000
     26 H111       -3.8320    1.5390   -2.2020 ha        1 1DZ      0.121500
     27 H121       -2.2030    1.5070   -0.3120 ha        1 1DZ      0.144500
     28 H131        0.9250    1.2830   -2.2870 ha        1 1DZ      0.146000
     29 H141        2.4310    1.4480   -4.2440 ha        1 1DZ      0.121000
     30 H151        4.5730    0.1770   -4.3120 ha        1 1DZ      0.119000
     31 H171        3.7240   -1.4750   -0.4100 ha        1 1DZ      0.163000
     32 H181        6.3240   -0.8950   -1.7910 hc        1 1DZ      0.038700
     33 H183        5.4400   -2.4710   -1.9160 hc        1 1DZ      0.038700
     34 H182        5.9360   -1.5870   -3.4210 hc        1 1DZ      0.038700
@<TRIPOS>BOND
     1    1    2 1   
     2    1    5 2   
     3    1    6 1   
     4    2    3 1   
     5    2    7 1   
     6    3    4 2   
     7    4    5 1   
     8    4   19 1   
     9    5   22 1   
    10    6    8 ar  
    11    6   12 ar  
    12    7   13 ar  
    13    7   17 ar  
    14    8    9 ar  
    15    8   23 1   
    16    9   10 ar  
    17    9   24 1   
    18   10   11 ar  
    19   10   25 1   
    20   11   12 ar  
    21   11   26 1   
    22   12   27 1   
    23   13   14 ar  
    24   13   28 1   
    25   14   15 ar  
    26   14   29 1   
    27   15   16 ar  
    28   15   30 1   
    29   16   17 ar  
    30   16   18 1   
    31   17   31 1   
    32   18   32 1   
    33   18   33 1   
    34   18   34 1   
    35   19   20 1   
    36   19   21 1   
@<TRIPOS>SUBSTRUCTURE
     1 1DZ         1 TEMP              0 ****  ****    0 ROOT
