@<TRIPOS>MOLECULE
molecule
   47    49     1     0     0
SMALL
bcc


@<TRIPOS>ATOM
      1 N1           0.0000     0.0000     0.0000 na         1 1E0       0.336300
      2 N2           1.2850     0.0000     0.0000 nc         1 1E0      -0.451800
      3 C1           1.7410     0.0000     1.2380 cd         1 1E0       0.161800
      4 C2           0.6130    -0.0000     2.1000 cd         1 1E0      -0.090700
      5 C3          -0.4690    -0.0010     1.2780 cc         1 1E0      -0.132300
      6 N3           0.6160    -0.0010     3.5030 ns         1 1E0      -0.409100
      7 C4          -0.5510    -0.0020     4.1780 c          1 1E0       0.596100
      8 N4          -0.5490    -0.0010     5.5260 nz         1 1E0      -0.667400
      9 O1          -1.6040    -0.0020     3.5720 o          1 1E0      -0.484100
     10 C5           3.1580    -0.0000     1.6490 c          1 1E0       0.475600
     11 N5           4.1300     0.0010     0.7160 nz         1 1E0      -0.672400
     12 O2           3.4470    -0.0010     2.8300 o          1 1E0      -0.468100
     13 C6          -0.8010     0.0050    -1.1460 ca         1 1E0      -0.103200
     14 C7          -1.8480     0.8920    -1.2590 ca         1 1E0      -0.054000
     15 C8          -2.6480     0.9100    -2.3990 ca         1 1E0      -0.150000
     16 C9          -2.4180     0.0520    -3.4310 ca         1 1E0      -0.027000
     17 C10         -0.5390    -0.8960    -2.2010 ca         1 1E0       0.054000
     18 C11         -1.3590    -0.8700    -3.3560 ca         1 1E0      -0.077000
     19 C12         -1.1010    -1.7660    -4.4080 ca         1 1E0      -0.064000
     20 C13         -0.0680    -2.6460    -4.3060 ca         1 1E0      -0.214000
     21 C14          0.7430    -2.6730    -3.1680 ca         1 1E0       0.210100
     22 C15          0.5210    -1.8130    -2.1290 ca         1 1E0      -0.234000
     23 O3           1.7660    -3.5630    -3.0940 os         1 1E0      -0.341900
     24 C16          1.9510    -4.4330    -4.2130 c3         1 1E0       0.133400
     25 C17          3.1410    -5.3570    -3.9490 c3         1 1E0      -0.083400
     26 C18          3.3390    -6.2890    -5.1470 c3         1 1E0      -0.091100
     27 H1          -1.5090    -0.0010     1.5820 h4         1 1E0       0.242000
     28 H2           1.4830     0.0330     4.0020 hn         1 1E0       0.361500
     29 H4          -0.0810     0.8190     5.8580 hn         1 1E0       0.491467
     30 H3          -1.4920    -0.0050     5.8620 hn         1 1E0       0.491467
     31 H5           3.9600     0.7340     0.0570 hn         1 1E0       0.492800
     32 H6           4.1370    -0.8800     0.2410 hn         1 1E0       0.492800
     33 H7          -2.0520     1.5850    -0.4520 ha         1 1E0       0.140000
     34 H8          -3.4660     1.6170    -2.4650 ha         1 1E0       0.165000
     35 H9          -3.0500     0.0800    -4.3100 ha         1 1E0       0.164000
     36 H10         -1.6960    -1.7770    -5.3130 ha         1 1E0       0.160000
     37 H11         -0.1790    -3.1500    -5.2580 ha         1 1E0       0.174000
     38 H12          1.0770    -2.2310    -1.2980 ha         1 1E0       0.144000
     39 H14          2.1410    -3.8440    -5.1020 h1         1 1E0       0.049200
     40 H13          1.0570    -5.0280    -4.3590 h1         1 1E0       0.049200
     41 H15          2.9510    -5.9470    -3.0610 hc         1 1E0       0.051200
     42 H16          4.0350    -4.7620    -3.8030 hc         1 1E0       0.051200
     43 H18          3.5300    -5.6990    -6.0360 hc         1 1E0       0.048033
     44 H17          2.4460    -6.8840    -5.2930 hc         1 1E0       0.048033
     45 H19          4.1820    -6.9430    -4.9600 hc         1 1E0       0.048033
     46 H43         -0.0690    -0.8130     5.8600 hn         1 1E0       0.491467
     47 H53          5.0180     0.1300     1.1600 hn         1 1E0       0.492800
@<TRIPOS>BOND
     1    15    16 ar  
     2    15    14 ar  
     3    16    18 ar  
     4    14    13 ar  
     5    18    19 ar  
     6    18    17 ar  
     7    19    20 ar  
     8    13    17 ar  
     9    13     1 1   
    10    17    22 ar  
    11     1     2 1   
    12     1     5 1   
    13    20    21 ar  
    14     2     3 2   
    15     5     4 2   
    16    22    21 ar  
    17    21    23 1   
    18     3     4 1   
    19     3    10 1   
    20     4     6 1   
    21     9     7 2   
    22    11    10 1   
    23    10    12 2   
    24    23    24 1   
    25     6     7 1   
    26     7     8 1   
    27    24    25 1   
    28    25    26 1   
    29     5    27 1   
    30     6    28 1   
    31     8    29 1   
    32     8    30 1   
    33    11    31 1   
    34    11    32 1   
    35    14    33 1   
    36    15    34 1   
    37    16    35 1   
    38    19    36 1   
    39    20    37 1   
    40    22    38 1   
    41    24    39 1   
    42    24    40 1   
    43    25    41 1   
    44    25    42 1   
    45    26    43 1   
    46    26    44 1   
    47    26    45 1   
    48    46     8 1   
    49    47    11 1   
@<TRIPOS>SUBSTRUCTURE
     1 1E0         1 TEMP              0 ****  ****    0 ROOT
