@<TRIPOS>MOLECULE
1E0
   47    49     1     0     0
SMALL
bcc


@<TRIPOS>ATOM
      1 N1           0.4500     0.2020    -0.2720 na         1 1E0       0.303300
      2 N2           1.4730     0.9940    -0.0520 nc         1 1E0      -0.434800
      3 C1           1.8370     0.8410     1.2780 cd         1 1E0       0.137800
      4 C2           0.9460    -0.1310     1.9050 cd         1 1E0      -0.073700
      5 C3           0.0650    -0.5240     0.8700 cc         1 1E0      -0.116300
      6 N3           1.0030    -0.5300     3.2390 ns         1 1E0      -0.397100
      7 C4           0.0740    -1.4050     3.7510 c          1 1E0       0.645100
      8 N4           0.1590    -1.7420     5.2380 nz         1 1E0      -0.742400
      9 O1          -0.8380    -1.9830     3.1580 o          1 1E0      -0.447100
     10 C5           2.9210     1.5240     1.9280 c          1 1E0       0.512600
     11 N5           3.7320     2.4640     1.0750 nz         1 1E0      -0.738400
     12 O2           3.2660     1.4260     3.1030 o          1 1E0      -0.469100
     13 C6          -0.2530     0.1270    -1.5310 ca         1 1E0      -0.110200
     14 C7          -0.7800     1.3010    -2.0680 ca         1 1E0      -0.050000
     15 C8          -1.5100     1.2540    -3.2660 ca         1 1E0      -0.154000
     16 C9          -1.7030     0.0530    -3.9160 ca         1 1E0      -0.028000
     17 C10         -0.4010    -1.1350    -2.1940 ca         1 1E0       0.042000
     18 C11         -1.1580    -1.1460    -3.3990 ca         1 1E0      -0.074000
     19 C12         -1.3530    -2.3810    -4.0900 ca         1 1E0      -0.063000
     20 C13         -0.8110    -3.5450    -3.6260 ca         1 1E0      -0.130000
     21 C14         -0.0280    -3.5220    -2.4270 ca         1 1E0       0.197100
     22 C15          0.1690    -2.3460    -1.7220 ca         1 1E0      -0.280000
     23 O3           0.4690    -4.7480    -2.0790 os         1 1E0      -0.302900
     24 C16          1.3610    -4.7970    -0.9540 c3         1 1E0       0.129400
     25 C17          1.8130    -6.2430    -0.8400 c3         1 1E0      -0.086400
     26 C18          0.7640    -7.1160    -0.2030 c3         1 1E0      -0.097100
     27 H1          -0.7740    -1.2320     0.8580 h4         1 1E0       0.248000
     28 H2           1.7140    -0.1070     3.8060 hn         1 1E0       0.376500
     29 H4           1.0570    -2.1770     5.4730 hn         1 1E0       0.486467
     30 H3          -0.6020    -2.4150     5.4380 hn         1 1E0       0.486467
     31 H5           4.1460     1.9510     0.2860 hn         1 1E0       0.484800
     32 H6           4.4830     2.8900     1.6360 hn         1 1E0       0.484800
     33 H7          -0.6480     2.2750    -1.5680 ha         1 1E0       0.148000
     34 H8          -1.9280     2.1880    -3.6750 ha         1 1E0       0.170000
     35 H9          -2.2840     0.0140    -4.8540 ha         1 1E0       0.168000
     36 H10         -1.9530    -2.3730    -5.0160 ha         1 1E0       0.166000
     37 H11         -0.9490    -4.5060    -4.1460 ha         1 1E0       0.181000
     38 H12          0.7810    -2.3500    -0.8120 ha         1 1E0       0.123000
     39 H14          2.2310    -4.1150    -1.1470 h1         1 1E0       0.030200
     40 H13          0.8120    -4.4640    -0.0350 h1         1 1E0       0.030200
     41 H15          2.7560    -6.2620    -0.2330 hc         1 1E0       0.067200
     42 H16          2.0570    -6.6330    -1.8650 hc         1 1E0       0.067200
     43 H18          0.5440    -6.7800     0.8390 hc         1 1E0       0.044367
     44 H17          1.1180    -8.1750    -0.1650 hc         1 1E0       0.044367
     45 H19         -0.1830    -7.0800    -0.7930 hc         1 1E0       0.044367
     46 H43          0.0210    -0.9060     5.8170 hn         1 1E0       0.486467
     47 H53          3.1270     3.2050     0.6980 hn         1 1E0       0.484800
@<TRIPOS>BOND
     1     1     2 1   
     2     1     5 1   
     3     1    13 1   
     4     2     3 2   
     5     3     4 1   
     6     3    10 1   
     7     4     5 2   
     8     4     6 1   
     9     5    27 1   
    10     6     7 1   
    11     6    28 1   
    12     7     8 1   
    13     7     9 2   
    14     8    29 1   
    15     8    30 1   
    16     8    46 1   
    17    10    11 1   
    18    10    12 2   
    19    11    31 1   
    20    11    32 1   
    21    11    47 1   
    22    13    14 ar  
    23    13    17 ar  
    24    14    15 ar  
    25    14    33 1   
    26    15    16 ar  
    27    15    34 1   
    28    16    18 ar  
    29    16    35 1   
    30    17    18 ar  
    31    17    22 ar  
    32    18    19 ar  
    33    19    20 ar  
    34    19    36 1   
    35    20    21 ar  
    36    20    37 1   
    37    21    22 ar  
    38    21    23 1   
    39    22    38 1   
    40    23    24 1   
    41    24    25 1   
    42    24    39 1   
    43    24    40 1   
    44    25    26 1   
    45    25    41 1   
    46    25    42 1   
    47    26    43 1   
    48    26    44 1   
    49    26    45 1   
@<TRIPOS>SUBSTRUCTURE
     1 1E0         1 TEMP              0 ****  ****    0 ROOT
