@<TRIPOS>MOLECULE
1E0
   47    49     1     0     0
SMALL
bcc


@<TRIPOS>ATOM
      1 N1           0.0000     0.0000     0.0000 na         1 1E0       0.927300
      2 N2           1.2850     0.0000     0.0000 nc         1 1E0      -0.608800
      3 C1           1.7410     0.0000     1.2380 cd         1 1E0       0.134800
      4 C2           0.6130    -0.0000     2.1000 cd         1 1E0      -0.220700
      5 C3          -0.4690    -0.0010     1.2780 cc         1 1E0      -0.338300
      6 N3           0.6160    -0.0010     3.5030 ns         1 1E0       0.100900
      7 C4          -0.5510    -0.0020     4.1780 c          1 1E0       0.274100
      8 N4          -0.5490    -0.0010     5.5260 nz         1 1E0       0.226600
      9 O1          -1.6040    -0.0020     3.5720 o          1 1E0      -0.521100
     10 C5           3.1580    -0.0000     1.6490 c          1 1E0       0.325600
     11 N5           4.1300     0.0010     0.7160 nz         1 1E0       0.216600
     12 O2           3.4470    -0.0010     2.8300 o          1 1E0      -0.501100
     13 C6          -0.8010     0.0050    -1.1460 ca         1 1E0      -0.343200
     14 C7          -1.8480     0.8920    -1.2590 ca         1 1E0       0.011000
     15 C8          -2.6480     0.9100    -2.3990 ca         1 1E0      -0.138000
     16 C9          -2.4180     0.0520    -3.4310 ca         1 1E0       0.036000
     17 C10         -0.5390    -0.8960    -2.2010 ca         1 1E0       0.090000
     18 C11         -1.3590    -0.8700    -3.3560 ca         1 1E0      -0.093000
     19 C12         -1.1010    -1.7660    -4.4080 ca         1 1E0      -0.020000
     20 C13         -0.0680    -2.6460    -4.3060 ca         1 1E0      -0.203000
     21 C14          0.7430    -2.6730    -3.1680 ca         1 1E0       0.241100
     22 C15          0.5210    -1.8130    -2.1290 ca         1 1E0      -0.251000
     23 O3           1.7660    -3.5630    -3.0940 os         1 1E0      -0.319900
     24 C16          1.9510    -4.4330    -4.2130 c3         1 1E0       0.202400
     25 C17          3.1410    -5.3570    -3.9490 c3         1 1E0      -0.032400
     26 C18          3.3390    -6.2890    -5.1470 c3         1 1E0       0.013900
     27 H1          -1.5090    -0.0010     1.5820 h4         1 1E0       0.219000
     28 H2           1.4830     0.0330     4.0020 hn         1 1E0       0.191500
     29 H4          -0.0810     0.8190     5.8580 hn         1 1E0       0.250467
     30 H3          -1.4920    -0.0050     5.8620 hn         1 1E0       0.250467
     31 H5           3.9600     0.7340     0.0570 hn         1 1E0       0.255800
     32 H6           4.1370    -0.8800     0.2410 hn         1 1E0       0.255800
     33 H7          -2.0520     1.5850    -0.4520 ha         1 1E0       0.106000
     34 H8          -3.4660     1.6170    -2.4650 ha         1 1E0       0.133000
     35 H9          -3.0500     0.0800    -4.3100 ha         1 1E0       0.125000
     36 H10         -1.6960    -1.7770    -5.3130 ha         1 1E0       0.125000
     37 H11         -0.1790    -3.1500    -5.2580 ha         1 1E0       0.153000
     38 H12          1.0770    -2.2310    -1.2980 ha         1 1E0       0.123000
     39 H14          2.1410    -3.8440    -5.1020 h1         1 1E0       0.012700
     40 H13          1.0570    -5.0280    -4.3590 h1         1 1E0       0.012700
     41 H15          2.9510    -5.9470    -3.0610 hc         1 1E0       0.018200
     42 H16          4.0350    -4.7620    -3.8030 hc         1 1E0       0.018200
     43 H18          3.5300    -5.6990    -6.0360 hc         1 1E0       0.011367
     44 H17          2.4460    -6.8840    -5.2930 hc         1 1E0       0.011367
     45 H19          4.1820    -6.9430    -4.9600 hc         1 1E0       0.011367
     46 H43         -0.0690    -0.8130     5.8600 hn         1 1E0       0.250467
     47 H53          5.0180     0.1300     1.1600 hn         1 1E0       0.255800
@<TRIPOS>BOND
     1     1     2 1   
     2     1     5 1   
     3     1    13 1   
     4     2     3 2   
     5     3     4 1   
     6     3    10 1   
     7     4     5 2   
     8     4     6 1   
     9     5    27 1   
    10     6     7 1   
    11     6    28 1   
    12     7     8 1   
    13     7     9 2   
    14     8    29 1   
    15     8    30 1   
    16     8    46 1   
    17    10    11 1   
    18    10    12 2   
    19    11    31 1   
    20    11    32 1   
    21    11    47 1   
    22    13    14 ar  
    23    13    17 ar  
    24    14    15 ar  
    25    14    33 1   
    26    15    16 ar  
    27    15    34 1   
    28    16    18 ar  
    29    16    35 1   
    30    17    18 ar  
    31    17    22 ar  
    32    18    19 ar  
    33    19    20 ar  
    34    19    36 1   
    35    20    21 ar  
    36    20    37 1   
    37    21    22 ar  
    38    21    23 1   
    39    22    38 1   
    40    23    24 1   
    41    24    25 1   
    42    24    39 1   
    43    24    40 1   
    44    25    26 1   
    45    25    41 1   
    46    25    42 1   
    47    26    43 1   
    48    26    44 1   
    49    26    45 1   
@<TRIPOS>SUBSTRUCTURE
     1 1E0         1 TEMP              0 ****  ****    0 ROOT
