@<TRIPOS>MOLECULE
molecule
   27    27     1     0     0
SMALL
bcc


@<TRIPOS>ATOM
      1 N26          0.0000     0.0000     0.0000 nz         1 1E1      -0.827600
      2 C27          1.4700     0.0000     0.0000 c3         1 1E1       0.168500
      3 C28          1.9800     0.0000     1.4410 c3         1 1E1      -0.100400
      4 C29          1.5760     1.3080     2.1260 cx         1 1E1      -0.232700
      5 C30          2.0930     1.5520     3.5450 cx         1 1E1      -0.085400
      6 C31          0.6180     1.2160     3.3150 cx         1 1E1      -0.085400
      7 O32          1.5030    -2.4160    -0.0480 oh         1 1E1      -0.525800
      8 C33          1.9790    -1.2490    -0.7220 c3         1 1E1       0.045100
      9 C36          1.4760    -1.2500    -2.1420 c          1 1E1       0.380100
     10 H32         -0.3340    -0.2880     0.8980 hn         1 1E1       0.468467
     11 H33          1.8310     0.8850    -0.5110 hx         1 1E1       0.069700
     12 H34          2.8730    -0.5340     1.7420 hc         1 1E1       0.100200
     13 H35          2.3660     0.7170     0.7260 hc         1 1E1       0.100200
     14 H36          1.4660     2.2010     1.5230 hc         1 1E1       0.086700
     15 H37          2.3040     2.5850     3.7940 hc         1 1E1       0.103700
     16 H38          2.6940     0.7560     3.9670 hc         1 1E1       0.103700
     17 H39          0.3180     0.2140     3.5970 hc         1 1E1       0.103700
     18 H40         -0.0720     2.0430     3.4240 hc         1 1E1       0.103700
     19 H41          2.1630    -3.0880    -0.0780 ho         1 1E1       0.479000
     20 H42          3.0620    -1.2490    -0.7230 h1         1 1E1       0.121700
     21 H43          1.8810    -0.5730    -3.9620 hn         1 1E1       0.497467
     22 H44          2.7660    -0.3970    -2.5420 hn         1 1E1       0.497467
     23 H2          -0.3340    -0.6340    -0.6990 hn         1 1E1       0.468467
     24 O34          0.7060    -2.1100    -2.5120 o          1 1E1      -0.311100
     25 N35          1.8820    -0.2930    -3.0010 nz         1 1E1      -0.697400
     26 H263        -0.3340     0.9220    -0.2000 hn         1 1E1       0.468467
     27 H353         1.4430     0.5960    -2.8670 hn         1 1E1       0.497467
@<TRIPOS>BOND
     1     5     6 1   
     2     5     4 1   
     3     6     4 1   
     4     4     3 1   
     5     3     2 1   
     6     2     1 1   
     7     2     8 1   
     8    24     9 2   
     9     9    25 1   
    10     9     8 1   
    11     8     7 1   
    12     1    10 1   
    13     2    11 1   
    14     3    12 1   
    15     3    13 1   
    16     4    14 1   
    17     5    15 1   
    18     5    16 1   
    19     6    17 1   
    20     6    18 1   
    21     7    19 1   
    22     8    20 1   
    23    25    21 1   
    24    25    22 1   
    25     1    23 1   
    26    26     1 1   
    27    27    25 1   
@<TRIPOS>SUBSTRUCTURE
     1 1E1         1 TEMP              0 ****  ****    0 ROOT
