@<TRIPOS>MOLECULE
1E1
   27    27     1     0     0
SMALL
bcc


@<TRIPOS>ATOM
      1 N26          0.0000     0.0000     0.0000 nz         1 1E1       0.007400
      2 C27          1.4700     0.0000     0.0000 c3         1 1E1       0.012500
      3 C28          1.9800     0.0000     1.4410 c3         1 1E1      -0.039400
      4 C29          1.5760     1.3080     2.1260 cx         1 1E1      -0.210700
      5 C30          2.0930     1.5520     3.5450 cx         1 1E1      -0.018900
      6 C31          0.6180     1.2160     3.3150 cx         1 1E1      -0.018900
      7 O32          1.5030    -2.4160    -0.0480 oh         1 1E1      -0.521800
      8 C33          1.9790    -1.2490    -0.7220 c3         1 1E1       0.109100
      9 C36          1.4760    -1.2500    -2.1420 c          1 1E1       0.212100
     10 H32         -0.3340    -0.2880     0.8980 hn         1 1E1       0.247133
     11 H33          1.8310     0.8850    -0.5110 hx         1 1E1       0.046700
     12 H34          2.8730    -0.5340     1.7420 hc         1 1E1       0.064700
     13 H35          2.3660     0.7170     0.7260 hc         1 1E1       0.064700
     14 H36          1.4660     2.2010     1.5230 hc         1 1E1       0.066700
     15 H37          2.3040     2.5850     3.7940 hc         1 1E1       0.066950
     16 H38          2.6940     0.7560     3.9670 hc         1 1E1       0.066950
     17 H39          0.3180     0.2140     3.5970 hc         1 1E1       0.066950
     18 H40         -0.0720     2.0430     3.4240 hc         1 1E1       0.066950
     19 H41          2.1630    -3.0880    -0.0780 ho         1 1E1       0.465000
     20 H42          3.0620    -1.2490    -0.7230 h1         1 1E1       0.078700
     21 H43          1.8810    -0.5730    -3.9620 hn         1 1E1       0.266467
     22 H44          2.7660    -0.3970    -2.5420 hn         1 1E1       0.266467
     23 H2          -0.3340    -0.6340    -0.6990 hn         1 1E1       0.247133
     24 O34          0.7060    -2.1100    -2.5120 o          1 1E1      -0.309100
     25 N35          1.8820    -0.2930    -3.0010 nz         1 1E1       0.181600
     26 H263        -0.3340     0.9220    -0.2000 hn         1 1E1       0.247133
     27 H353         1.4430     0.5960    -2.8670 hn         1 1E1       0.266467
@<TRIPOS>BOND
     1     1     2 1   
     2     1    10 1   
     3     1    23 1   
     4     1    26 1   
     5     2     3 1   
     6     2     8 1   
     7     2    11 1   
     8     3     4 1   
     9     3    12 1   
    10     3    13 1   
    11     4     5 1   
    12     4     6 1   
    13     4    14 1   
    14     5     6 1   
    15     5    15 1   
    16     5    16 1   
    17     6    17 1   
    18     6    18 1   
    19     7     8 1   
    20     7    19 1   
    21     8     9 1   
    22     8    20 1   
    23     9    24 2   
    24     9    25 1   
    25    21    25 1   
    26    22    25 1   
    27    25    27 1   
@<TRIPOS>SUBSTRUCTURE
     1 1E1         1 TEMP              0 ****  ****    0 ROOT
