@<TRIPOS>MOLECULE
1E1
   27    27     1     0     0
SMALL
bcc


@<TRIPOS>ATOM
      1 N26          0.0080     0.2780    -0.0680 nz         1 1E1      -0.832600
      2 C27          1.4960     0.1460     0.0490 c3         1 1E1       0.114500
      3 C28          1.9150    -0.0690     1.5140 c3         1 1E1      -0.078400
      4 C29          1.3470     0.9800     2.4110 cx         1 1E1      -0.229700
      5 C30          1.8120     2.4150     2.3110 cx         1 1E1      -0.094900
      6 C31          2.2360     1.5850     3.4780 cx         1 1E1      -0.094900
      7 O32          1.2900    -1.1440    -2.0020 oh         1 1E1      -0.613800
      8 C33          2.0670    -1.0090    -0.8340 c3         1 1E1       0.069100
      9 C36          3.5100    -0.6490    -1.2140 c          1 1E1       0.508100
     10 O34          4.3270    -0.1240    -0.4780 o          1 1E1      -0.349100
     11 N35          3.9750    -0.9840    -2.6010 nz         1 1E1      -0.746400
     12 H32         -0.4610    -0.5190     0.3770 hn         1 1E1       0.480133
     13 H33          1.9250     1.1340    -0.3090 hx         1 1E1       0.131700
     14 H34          1.5930    -1.0860     1.8690 hc         1 1E1       0.097700
     15 H35          3.0410    -0.0390     1.5420 hc         1 1E1       0.097700
     16 H36          0.2950     0.7870     2.7040 hc         1 1E1       0.089700
     17 H37          2.5650     2.6860     1.5490 hc         1 1E1       0.098700
     18 H38          1.0740     3.2250     2.4690 hc         1 1E1       0.098700
     19 H39          1.7960     1.7810     4.4750 hc         1 1E1       0.098700
     20 H40          3.2880     1.2520     3.5550 hc         1 1E1       0.098700
     21 H41          0.9950    -2.0670    -2.0890 ho         1 1E1       0.477000
     22 H42          2.1160    -1.9650    -0.2290 h1         1 1E1       0.140700
     23 H43          4.8020    -0.4130    -2.8450 hn         1 1E1       0.493133
     24 H44          3.2220    -0.8050    -3.2810 hn         1 1E1       0.493133
     25 H2          -0.2730     0.3300    -1.0550 hn         1 1E1       0.480133
     26 H263        -0.2790     1.1390     0.4250 hn         1 1E1       0.480133
     27 H353         4.2440    -1.9760    -2.6550 hn         1 1E1       0.493133
@<TRIPOS>BOND
     1     1     2 1   
     2     1    12 1   
     3     1    25 1   
     4     1    26 1   
     5     2     3 1   
     6     2     8 1   
     7     2    13 1   
     8     3     4 1   
     9     3    14 1   
    10     3    15 1   
    11     4     5 1   
    12     4     6 1   
    13     4    16 1   
    14     5     6 1   
    15     5    17 1   
    16     5    18 1   
    17     6    19 1   
    18     6    20 1   
    19     7     8 1   
    20     7    21 1   
    21     8     9 1   
    22     8    22 1   
    23     9    10 2   
    24     9    11 1   
    25    11    23 1   
    26    11    24 1   
    27    11    27 1   
@<TRIPOS>SUBSTRUCTURE
     1 1E1         1 TEMP              0 ****  ****    0 ROOT
