@<TRIPOS>MOLECULE
1E2
   42    40     1     0     0
SMALL
bcc


@<TRIPOS>ATOM
      1 C2         -0.6770    1.0130   -0.2980 c3        1 1E2     -0.103000
      2 C4          0.2550    1.2050    2.0050 c3        1 1E2      0.051000
      3 C6          2.7400    0.8360    2.1640 c2        1 1E2     -0.720000
      4 C5          1.6190    0.9090    1.4520 c2        1 1E2     -0.026000
      5 O10         6.7130   -4.5710   -1.2380 o         1 1E2     -0.371000
      6 C23         7.1330   -3.7060   -2.0130 c2        1 1E2      0.309000
      7 C24         8.2790   -3.8210   -2.9610 c3        1 1E2     -0.218000
      8 C46         5.3860   -2.2610   -1.2290 c3        1 1E2     -0.047000
      9 C45         4.1230   -2.7360   -1.9440 c3        1 1E2     -0.022000
     10 O47         4.2040   -4.1130   -2.2730 oh        1 1E2     -0.346000
     11 C44         2.8930   -2.4510   -1.0740 c3        1 1E2     -0.035000
     12 O6          2.9450   -3.1830    0.1320 oh        1 1E2     -0.366000
     13 C1          0.7160    0.6940   -0.7580 c1        1 1E2     -0.014000
     14 O2         -1.4290    1.6920   -1.2930 oh        1 1E2     -0.331000
     15 C3         -0.6590    1.8800    0.9660 c3        1 1E2     -0.028000
     16 O3         -1.9460    1.9710    1.5570 oh        1 1E2     -0.341000
     17 O4          0.4060    2.0560    3.1310 oh        1 1E2     -0.306000
     18 O5          1.7040    0.6360    0.0510 os        1 1E2     -0.012000
     19 S           4.4090    0.4400    1.7110 s6        1 1E2      2.885000
     20 O9          4.3200   -0.7830    0.9950 o         1 1E2     -1.067000
     21 O7          4.8580    1.5180    0.9300 o         1 1E2     -1.067000
     22 O8          5.0470    0.3100    2.9610 o         1 1E2     -1.067000
     23 H1         -1.2170    0.0430   -0.0850 h1        1 1E2      0.125000
     24 H2         -0.2230    0.2360    2.3370 h1        1 1E2      0.097000
     25 H3          0.2920    0.1410    4.9340 ha        1 1E2      0.000500
     26 H4          2.6450    1.0620    3.2440 h4        1 1E2      0.171000
     27 H5          0.8850    0.2500    4.6250 ha        1 1E2      0.000500
     28 H6          7.9100   -4.2760   -3.9120 hc        1 1E2      0.104000
     29 H7          8.7120   -2.8160   -3.1810 hc        1 1E2      0.104000
     30 H8          9.0620   -4.4810   -2.5150 hc        1 1E2      0.104000
     31 H11         4.0180   -2.2190   -2.9380 h1        1 1E2      0.105000
     32 H12         4.3240   -4.5890   -1.4390 ho        1 1E2      0.220000
     33 H13         3.4990   -2.6730    0.7460 ho        1 1E2      0.249000
     34 H14         1.9740   -2.8180   -1.6030 h1        1 1E2      0.096000
     35 H15         2.8210   -1.3480   -0.8720 h1        1 1E2      0.096000
     36 H16        -0.8950    1.7020   -2.1000 ho        1 1E2      0.224000
     37 H17        -0.2870    2.9140    0.7280 h1        1 1E2      0.109000
     38 H18        -2.5450    2.2560    0.8550 ho        1 1E2      0.219000
     39 H19        -0.4870    2.2100    3.4660 ho        1 1E2      0.211000
     40 H9          5.5030   -2.7740   -0.2390 h1        1 1E2      0.141000
     41 O48         6.5390   -2.4820   -2.0540 os        1 1E2     -0.273000
     42 H10         5.3660   -1.1480   -1.0740 h1        1 1E2      0.141000
@<TRIPOS>BOND
     1    1   13 1   
     2    1   14 1   
     3    1   15 1   
     4    1   23 1   
     5    2    4 1   
     6    2   15 1   
     7    2   17 1   
     8    2   24 1   
     9    3    4 1   
    10    3   19 1   
    11    3   26 1   
    12    4   18 1   
    13    5    6 1   
    14    6    7 1   
    15    6   41 1   
    16    7   28 1   
    17    7   29 1   
    18    7   30 1   
    19    8    9 1   
    20    8   40 1   
    21    8   41 1   
    22    8   42 1   
    23    9   10 1   
    24    9   11 1   
    25    9   31 1   
    26   10   32 1   
    27   11   12 1   
    28   11   34 1   
    29   11   35 1   
    30   12   33 1   
    31   13   18 1   
    32   14   36 1   
    33   15   16 1   
    34   15   37 1   
    35   16   38 1   
    36   17   39 1   
    37   19   20 1   
    38   19   21 1   
    39   19   22 1   
    40   25   27 1   
@<TRIPOS>SUBSTRUCTURE
     1 1E2         1 TEMP              0 ****  ****    0 ROOT
