@<TRIPOS>MOLECULE
molecule
   42    42     1     0     0
SMALL
bcc


@<TRIPOS>ATOM
      1 C2           0.0000     0.0000     0.0000 c3         1 1E2       0.114100
      2 C4           0.0770     1.1880     2.1920 c3         1 1E2       0.110100
      3 C6           2.1920     1.0490     3.5180 c3         1 1E2      -0.247600
      4 C5           1.6060     1.1430     2.1070 c3         1 1E2       0.174100
      5 O10          7.7840    -2.9590    -2.6010 o          1 1E2      -0.546000
      6 C23          6.9760    -3.7810    -2.9620 c          1 1E2       0.630100
      7 C24          7.4210    -4.9620    -3.7850 c3         1 1E2      -0.141100
      8 C46          5.3270    -2.4810    -1.8350 c3         1 1E2       0.133400
      9 C45          3.8230    -2.4940    -1.5590 c3         1 1E2       0.150100
     10 O47          3.4980    -3.6220    -0.7440 oh         1 1E2      -0.581800
     11 C44          3.4270    -1.2080    -0.8290 c3         1 1E2       0.124400
     12 O6           2.0080    -1.1660    -0.6730 os         1 1E2      -0.416600
     13 C1           1.5300     0.0000     0.0000 c3         1 1E2       0.340900
     14 O2          -0.4780     0.0590    -1.3450 oh         1 1E2      -0.604800
     15 C3          -0.5050     1.2210     0.7760 c3         1 1E2       0.114100
     16 O3          -1.9320     1.1890     0.8440 oh         1 1E2      -0.611800
     17 O4          -0.3280     2.3610     2.9020 oh         1 1E2      -0.594800
     18 O5           2.0050     0.0000     1.3480 os         1 1E2      -0.415600
     19 S            4.0020     1.1450     3.4270 s6         1 1E2       1.255800
     20 O9           4.5320    -0.0190     2.8070 o          1 1E2      -0.702533
     21 O7           4.4130     2.4430     3.0210 o          1 1E2      -0.702533
     22 O8           4.4610     1.0410     4.8750 o          1 1E2      -0.702533
     23 H1          -0.3600    -0.9030     0.4770 h1         1 1E2       0.063700
     24 H2          -0.2810     0.3050     2.7080 h1         1 1E2       0.055700
     25 H3           1.8170     1.8680     4.1200 h1         1 1E2       0.090200
     26 H4           1.9030     0.1070     3.9680 h1         1 1E2       0.090200
     27 H5           1.9650     2.0410     1.6200 h1         1 1E2       0.055700
     28 H6           7.1930    -5.8790    -3.2540 hc         1 1E2       0.064033
     29 H7           8.4880    -4.9010    -3.9580 hc         1 1E2       0.064033
     30 H8           6.9000    -4.9560    -4.7360 hc         1 1E2       0.064033
     31 H11          3.2830    -2.5570    -2.4960 h1         1 1E2       0.035700
     32 H12          2.9220    -4.1980    -1.2190 ho         1 1E2       0.397000
     33 H13          3.8980    -1.1880     0.1470 h1         1 1E2       0.065700
     34 H14          3.7530    -0.3510    -1.4050 h1         1 1E2       0.065700
     35 H15          1.8890     0.8870    -0.5070 h2         1 1E2       0.035700
     36 H16         -0.9700    -0.7220    -1.5380 ho         1 1E2       0.405000
     37 H17         -0.1820     2.1250     0.2740 h1         1 1E2       0.055700
     38 H18         -2.2840     1.9530     0.4190 ho         1 1E2       0.405000
     39 H19         -0.9900     2.1330     3.5340 ho         1 1E2       0.402000
     40 H9           5.8670    -2.5070    -0.8970 h1         1 1E2       0.068700
     41 O48          5.6830    -3.6430    -2.6310 os         1 1E2      -0.434900
     42 H10          5.5870    -1.5790    -2.3770 h1         1 1E2       0.068700
@<TRIPOS>BOND
     1    21    19 1
     2     3    19 1
     3     3     4 1
     4    20    19 1
     5    19    22 1
     6    17     2 1
     7     2     4 1
     8     2    15 1
     9     4    18 1
    10    18    13 1
    11    16    15 1
    12    15     1 1
    13    13     1 1
    14    13    12 1
    15     1    14 1
    16    12    11 1
    17     7     6 1
    18    11     9 1
    19     6     5 2
    20     6    41 1
    21    10     9 1
    22     9     8 1
    23    41     8 1
    24     1    23 1
    25     2    24 1
    26     3    25 1
    27     3    26 1
    28     4    27 1
    29     7    28 1
    30     7    29 1
    31     7    30 1
    32     8    40 1
    33     8    42 1
    34     9    31 1
    35    10    32 1
    36    11    33 1
    37    11    34 1
    38    13    35 1
    39    14    36 1
    40    15    37 1
    41    16    38 1
    42    17    39 1
@<TRIPOS>SUBSTRUCTURE
     1 1E2         1 TEMP              0 ****  ****    0 ROOT
