@<TRIPOS>MOLECULE
1E2
   42    42     1     0     0
SMALL
bcc


@<TRIPOS>ATOM
      1 C2          -0.2950     0.0670    -0.0950 c3         1 1E2       0.123100
      2 C4           0.2070     1.4900     1.9230 c3         1 1E2       0.098100
      3 C6           2.5670     1.3520     2.8680 c3         1 1E2      -0.299600
      4 C5           1.7040     1.2850     1.6370 c3         1 1E2       0.178100
      5 O10          5.7380    -4.1000    -3.9860 o          1 1E2      -0.554000
      6 C23          5.0740    -4.5050    -3.0290 c          1 1E2       0.638100
      7 C24          4.9370    -5.9020    -2.5300 c3         1 1E2      -0.150100
      8 C46          4.3570    -2.2400    -2.7150 c3         1 1E2       0.137400
      9 C45          3.0490    -1.6000    -2.2520 c3         1 1E2       0.108100
     10 O47          2.0180    -2.0750    -3.1030 oh         1 1E2      -0.610800
     11 C44          2.7570    -1.9020    -0.7790 c3         1 1E2       0.099400
     12 O6           1.4160    -1.5450    -0.4670 os         1 1E2      -0.415600
     13 C1           1.2260    -0.1680    -0.1880 c3         1 1E2       0.329900
     14 O2          -0.7900     0.0670    -1.4240 oh         1 1E2      -0.605800
     15 C3          -0.5550     1.4190     0.5850 c3         1 1E2       0.074100
     16 O3          -1.9580     1.5230     0.7740 oh         1 1E2      -0.625800
     17 O4          -0.1180     2.7060     2.5560 oh         1 1E2      -0.632800
     18 O5           1.8740    -0.0230     1.0640 os         1 1E2      -0.436600
     19 S            3.4940     2.8830     2.9810 s6         1 1E2       1.433800
     20 O9           3.8420     2.9790     4.3410 o          1 1E2      -0.746867
     21 O7           2.5530     3.8570     2.5440 o          1 1E2      -0.746867
     22 O8           4.5820     2.7200     2.1010 o          1 1E2      -0.746867
     23 H1          -0.7780    -0.7620     0.4900 h1         1 1E2       0.068700
     24 H2          -0.1700     0.6780     2.6080 h1         1 1E2       0.072700
     25 H3           1.9400     1.2380     3.7840 h1         1 1E2       0.090700
     26 H4           3.2900     0.5000     2.8590 h1         1 1E2       0.090700
     27 H5           2.0450     2.0580     0.8850 h1         1 1E2       0.058700
     28 H6           4.1430    -6.4170    -3.1250 hc         1 1E2       0.072033
     29 H7           4.6450    -5.9100    -1.4520 hc         1 1E2       0.072033
     30 H8           5.9070    -6.4380    -2.6650 hc         1 1E2       0.072033
     31 H11          3.1450    -0.4850    -2.4010 h1         1 1E2       0.047700
     32 H12          1.1780    -1.8990    -2.6510 ho         1 1E2       0.429000
     33 H13          3.4870    -1.3730    -0.1160 h1         1 1E2       0.078200
     34 H14          2.7880    -3.0100    -0.5940 h1         1 1E2       0.078200
     35 H15          1.6960     0.4910    -0.9690 h2         1 1E2       0.051700
     36 H16         -1.7070     0.3660    -1.3670 ho         1 1E2       0.416000
     37 H17         -0.2260     2.2590    -0.0890 h1         1 1E2       0.054700
     38 H18         -2.0900     2.1740     1.4770 ho         1 1E2       0.429000
     39 H19          0.6140     3.3370     2.4260 ho         1 1E2       0.469000
     40 H9           5.2300    -1.7380    -2.2240 h1         1 1E2       0.067700
     41 O48          4.3560    -3.6110    -2.2900 os         1 1E2      -0.433900
     42 H10          4.4450    -2.1790    -3.8310 h1         1 1E2       0.067700
@<TRIPOS>BOND
     1     1    13 1   
     2     1    14 1   
     3     1    15 1   
     4     1    23 1   
     5     2     4 1   
     6     2    15 1   
     7     2    17 1   
     8     2    24 1   
     9     3     4 1   
    10     3    19 1   
    11     3    25 1   
    12     3    26 1   
    13     4    18 1   
    14     4    27 1   
    15     5     6 2   
    16     6     7 1   
    17     6    41 1   
    18     7    28 1   
    19     7    29 1   
    20     7    30 1   
    21     8     9 1   
    22     8    40 1   
    23     8    41 1   
    24     8    42 1   
    25     9    10 1   
    26     9    11 1   
    27     9    31 1   
    28    10    32 1   
    29    11    12 1   
    30    11    33 1   
    31    11    34 1   
    32    12    13 1   
    33    13    18 1   
    34    13    35 1   
    35    14    36 1   
    36    15    16 1   
    37    15    37 1   
    38    16    38 1   
    39    17    39 1   
    40    19    20 1   
    41    19    21 1   
    42    19    22 1   
@<TRIPOS>SUBSTRUCTURE
     1 1E2         1 TEMP              0 ****  ****    0 ROOT
