@<TRIPOS>MOLECULE
1E5
   29    30     1     0     0
SMALL
bcc


@<TRIPOS>ATOM
      1 C1         -0.0590    0.2110    0.0290 cp        1 1E5     -0.072500
      2 C2          1.3020    0.5580   -0.0210 ca        1 1E5     -0.219000
      3 C3          2.0300    0.6540    1.1710 ca        1 1E5      0.132900
      4 C4          1.4250    0.4050    2.4170 ca        1 1E5     -0.265000
      5 C5          0.0680    0.0630    2.4500 ca        1 1E5      0.168100
      6 C6         -0.6800   -0.0280    1.2520 ca        1 1E5     -0.151000
      7 O7         -0.6280   -0.2070    3.6000 os        1 1E5     -0.286900
      8 C8          0.1260   -0.1390    4.8170 c3        1 1E5     -0.005600
      9 C9         -0.8160   -0.5130    5.9950 c         1 1E5      0.925600
     10 O12        -1.3180    0.4390    6.6520 o         1 1E5     -0.828300
     11 O13        -0.9470   -1.7350    6.2720 o         1 1E5     -0.828300
     12 C17        -0.7940    0.0920   -1.2470 cp        1 1E5      0.420800
     13 N18        -2.0360    0.6350   -1.3590 nb        1 1E5     -0.680000
     14 C19        -2.6510    0.5280   -2.5490 ca        1 1E5      0.403200
     15 C20        -2.0980   -0.1090   -3.6810 ca        1 1E5     -0.229900
     16 C21        -0.8300   -0.6770   -3.5430 ca        1 1E5     -0.089000
     17 C22        -0.1660   -0.5790   -2.3200 ca        1 1E5     -0.260300
     18 C23        -2.8510   -0.1650   -4.9960 c         1 1E5      0.912200
     19 O24        -3.9880    0.3830   -5.0560 o         1 1E5     -0.835800
     20 O25        -2.3000   -0.7550   -5.9700 o         1 1E5     -0.835800
     21 F31         3.3460    0.9920    1.1290 f         1 1E5     -0.170900
     22 H1          1.7900    0.7610   -0.9830 ha        1 1E5      0.138000
     23 H2          2.0220    0.4840    3.3330 ha        1 1E5      0.148000
     24 H3         -1.7480   -0.2840    1.3080 ha        1 1E5      0.166000
     25 H4          0.9750   -0.8670    4.7680 h1        1 1E5      0.019200
     26 H5          0.5120    0.9040    4.9520 h1        1 1E5      0.019200
     27 H7         -3.6590    0.9790   -2.6290 h4        1 1E5      0.036100
     28 H8         -0.3780   -1.1890   -4.4070 ha        1 1E5      0.149000
     29 H9          0.8300   -1.0190   -2.1830 ha        1 1E5      0.122000
@<TRIPOS>BOND
     1    1    2 ar  
     2    1    6 ar  
     3    1   12 1   
     4    2    3 ar  
     5    2   22 1   
     6    3    4 ar  
     7    3   21 1   
     8    4    5 ar  
     9    4   23 1   
    10    5    6 ar  
    11    5    7 1   
    12    6   24 1   
    13    7    8 1   
    14    8    9 1   
    15    8   25 1   
    16    8   26 1   
    17    9   10 1   
    18    9   11 1   
    19   12   13 ar  
    20   12   17 ar  
    21   13   14 ar  
    22   14   15 ar  
    23   14   27 1   
    24   15   16 ar  
    25   15   18 1   
    26   16   17 ar  
    27   16   28 1   
    28   17   29 1   
    29   18   19 1   
    30   18   20 1   
@<TRIPOS>SUBSTRUCTURE
     1 1E5         1 TEMP              0 ****  ****    0 ROOT
