@<TRIPOS>MOLECULE
molecule
   29    30     1     0     0
SMALL
bcc


@<TRIPOS>ATOM
      1 C1           0.0000     0.0000     0.0000 cp         1 1E5      -0.073500
      2 C2           1.3940     0.0000     0.0000 ca         1 1E5      -0.226000
      3 C3           2.0840     0.0000     1.1990 ca         1 1E5       0.142900
      4 C4           1.3940    -0.0000     2.3980 ca         1 1E5      -0.279000
      5 C5           0.0060    -0.0000     2.4040 ca         1 1E5       0.173100
      6 C6          -0.6930     0.0060     1.2090 ca         1 1E5      -0.150000
      7 O7          -0.6680    -0.0010     3.5850 os         1 1E5      -0.282900
      8 C8           0.1160    -0.0010     4.7790 c3         1 1E5       0.020400
      9 C9          -0.7960    -0.0020     5.9790 c          1 1E5       0.895600
     10 O12         -1.9950    -0.0020     5.8270 o          1 1E5      -0.833300
     11 O13         -0.2770    -0.0030     7.2170 o          1 1E5      -0.833300
     12 C17         -0.7430     0.0000    -1.2820 cp         1 1E5       0.447800
     13 N18         -2.0670     0.1020    -1.2740 nb         1 1E5      -0.708000
     14 C19         -2.7690     0.1060    -2.3860 ca         1 1E5       0.439200
     15 C20         -2.1370     0.0050    -3.6270 ca         1 1E5      -0.224900
     16 C21         -0.7390    -0.1030    -3.6750 ca         1 1E5      -0.086000
     17 C22         -0.0410    -0.0990    -2.4840 ca         1 1E5      -0.267300
     18 C23         -2.9300     0.0100    -4.8720 c          1 1E5       0.886200
     19 O24         -4.2720     0.1140    -4.8160 o          1 1E5      -0.842300
     20 O25         -2.3720    -0.0800    -5.9480 o          1 1E5      -0.842300
     21 F31          3.4360    -0.0000     1.1980 f          1 1E5      -0.167900
     22 H1           1.9360    -0.0020    -0.9380 ha         1 1E5       0.133000
     23 H2           1.9380    -0.0030     3.3350 ha         1 1E5       0.148000
     24 H3          -1.7760     0.0060     1.2130 ha         1 1E5       0.174000
     25 H4           0.7420    -0.8850     4.8010 h1         1 1E5       0.024700
     26 H5           0.7410     0.8840     4.8020 h1         1 1E5       0.024700
     27 H7          -3.8480     0.1900    -2.3380 h4         1 1E5       0.047100
     28 H8          -0.2210    -0.1810    -4.6220 ha         1 1E5       0.145000
     29 H9           1.0390    -0.1800    -2.4820 ha         1 1E5       0.117000
@<TRIPOS>BOND
     1    10     9 1   
     2     8     9 1   
     3     8     7 1   
     4     9    11 1   
     5     7     5 1   
     6     4     5 ar  
     7     4     3 ar  
     8     5     6 ar  
     9    21     3 1   
    10     3     2 ar  
    11     6     1 ar  
    12     2     1 ar  
    13     1    12 1   
    14    12    13 ar  
    15    12    17 ar  
    16    13    14 ar  
    17    17    16 ar  
    18    14    15 ar  
    19    16    15 ar  
    20    15    18 1   
    21    18    20 1   
    22    18    19 1   
    23     2    22 1   
    24     4    23 1   
    25     6    24 1   
    26     8    25 1   
    27     8    26 1   
    28    14    27 1   
    29    16    28 1   
    30    17    29 1   
@<TRIPOS>SUBSTRUCTURE
     1 1E5         1 TEMP              0 ****  ****    0 ROOT
