@<TRIPOS>MOLECULE
1E5
   29    30     1     0     0
SMALL
bcc


@<TRIPOS>ATOM
      1 C1          -0.1280    -0.5260    -0.0080 cp         1 1E5      -0.091500
      2 C2           1.2560    -0.7340    -0.0810 ca         1 1E5      -0.210000
      3 C3           2.0020    -0.8460     1.1040 ca         1 1E5       0.120900
      4 C4           1.3910    -0.7460     2.3640 ca         1 1E5      -0.222000
      5 C5           0.0080    -0.5340     2.4120 ca         1 1E5       0.149100
      6 C6          -0.7580    -0.4340     1.2340 ca         1 1E5      -0.154000
      7 O7          -0.6980    -0.4500     3.5920 os         1 1E5      -0.328900
      8 C8          -0.0220     0.1630     4.7010 c3         1 1E5       0.008400
      9 C9           0.6470    -0.8430     5.6630 c          1 1E5       0.898600
     10 O12          0.0500    -1.0900     6.7470 o          1 1E5      -0.837300
     11 O13          1.7850    -1.3030     5.3580 o          1 1E5      -0.837300
     12 C17         -0.8910    -0.3690    -1.2640 cp         1 1E5       0.427800
     13 N18         -2.1070    -0.9660    -1.3900 nb         1 1E5      -0.684000
     14 C19         -2.7600    -0.7990    -2.5530 ca         1 1E5       0.403200
     15 C20         -2.2740    -0.0470    -3.6440 ca         1 1E5      -0.232900
     16 C21         -1.0280     0.5660    -3.4950 ca         1 1E5      -0.089000
     17 C22         -0.3250     0.4070    -2.3000 ca         1 1E5      -0.263300
     18 C23         -3.0760     0.0870    -4.9230 c          1 1E5       0.912200
     19 O24         -2.5850     0.7760    -5.8630 o          1 1E5      -0.837800
     20 O25         -4.1950    -0.4970    -4.9900 o          1 1E5      -0.837800
     21 F31          3.3440    -1.0540     1.0230 f          1 1E5      -0.166900
     22 H1           1.7580    -0.8200    -1.0530 ha         1 1E5       0.134000
     23 H2           1.9680    -0.8650     3.3030 ha         1 1E5       0.218000
     24 H3          -1.8460    -0.2930     1.3060 ha         1 1E5       0.155000
     25 H4           0.7340     0.9050     4.3400 h1         1 1E5       0.032200
     26 H5          -0.8600     0.6890     5.2340 h1         1 1E5       0.032200
     27 H7          -3.7460    -1.2930    -2.6420 h4         1 1E5       0.034100
     28 H8          -0.6250     1.1630    -4.3270 ha         1 1E5       0.148000
     29 H9           0.6530     0.8840    -2.1560 ha         1 1E5       0.122000
@<TRIPOS>BOND
     1     1     2 ar  
     2     1     6 ar  
     3     1    12 1   
     4     2     3 ar  
     5     2    22 1   
     6     3     4 ar  
     7     3    21 1   
     8     4     5 ar  
     9     4    23 1   
    10     5     6 ar  
    11     5     7 1   
    12     6    24 1   
    13     7     8 1   
    14     8     9 1   
    15     8    25 1   
    16     8    26 1   
    17     9    10 1   
    18     9    11 1   
    19    12    13 ar  
    20    12    17 ar  
    21    13    14 ar  
    22    14    15 ar  
    23    14    27 1   
    24    15    16 ar  
    25    15    18 1   
    26    16    17 ar  
    27    16    28 1   
    28    17    29 1   
    29    18    19 1   
    30    18    20 1   
@<TRIPOS>SUBSTRUCTURE
     1 1E5         1 TEMP              0 ****  ****    0 ROOT
