@<TRIPOS>MOLECULE
molecule
   47    48     1     0     0
SMALL
bcc


@<TRIPOS>ATOM
      1 C1           0.0000     0.0000     0.0000 c          1 1E6       0.883200
      2 C2           1.4730     0.0000     0.0000 ca         1 1E6      -0.217900
      3 O3          -0.6750    -0.0020     1.1660 o          1 1E6      -0.831800
      4 O4          -0.6060     0.0050    -1.0530 o          1 1E6      -0.831800
      5 C5           2.1820     0.0000     1.2040 ca         1 1E6       0.442200
      6 N6           3.4970    -0.0000     1.2060 nb         1 1E6      -0.747000
      7 C7           4.1950     0.0000     0.0770 ca         1 1E6       0.489600
      8 C8           3.5540     0.0000    -1.1620 ca         1 1E6      -0.251300
      9 C9           2.1860    -0.0050    -1.2090 ca         1 1E6      -0.069000
     10 S10          5.9560     0.0070     0.1430 ss         1 1E6      -0.293400
     11 C11          6.2020     0.0050     1.9370 c3         1 1E6      -0.079300
     12 C12          7.6790     0.0090     2.2400 c          1 1E6       0.670100
     13 N15          8.1040     0.0090     3.5190 ns         1 1E6      -0.469100
     14 C16          9.4740    -0.0810     3.8030 ca         1 1E6       0.012600
     15 C17         10.3980     0.5210     2.9610 ca         1 1E6      -0.056000
     16 C18         11.7490     0.4320     3.2410 ca         1 1E6      -0.021600
     17 C19         12.1840    -0.2570     4.3640 ca         1 1E6       0.164100
     18 C20         11.2640    -0.8600     5.2090 ca         1 1E6      -0.297000
     19 C21          9.9080    -0.7680     4.9340 ca         1 1E6       0.145100
     20 O22         13.5140    -0.3440     4.6370 os         1 1E6      -0.309900
     21 C23         13.8900    -1.0700     5.8090 c3         1 1E6       0.131400
     22 C24         15.4140    -1.0570     5.9490 c3         1 1E6       0.153100
     23 C27         15.8240    -1.9370     7.1310 c3         1 1E6       0.125400
     24 O28         17.2490    -2.0200     7.1910 oh         1 1E6      -0.605800
     25 Cl3         12.9040     1.1860     2.1850 cl         1 1E6      -0.096400
     26 O37          9.0040    -1.3540     5.7640 os         1 1E6      -0.324900
     27 C38          9.5220    -2.0420     6.9050 c3         1 1E6       0.131700
     28 O43          8.4850     0.0150     1.3340 o          1 1E6      -0.593100
     29 O44         15.8600     0.2810     6.1730 oh         1 1E6      -0.589800
     30 H2           1.6430     0.0010     2.1440 h4         1 1E6       0.050100
     31 H3           4.1270     0.1570    -2.0680 ha         1 1E6       0.125000
     32 H4           1.6780    -0.2360    -2.1370 ha         1 1E6       0.156000
     33 H5           5.7490    -0.8820     2.3620 h1         1 1E6       0.095700
     34 H6           5.7420     0.8870     2.3660 h1         1 1E6       0.095700
     35 H7           7.4450     0.1130     4.2650 hn         1 1E6       0.336500
     36 H8          10.0610     1.0600     2.0840 ha         1 1E6       0.194000
     37 H9          11.6040    -1.3960     6.0870 ha         1 1E6       0.142000
     38 H10         13.4440    -0.6050     6.6800 h1         1 1E6       0.042700
     39 H11         13.5430    -2.0930     5.7270 h1         1 1E6       0.042700
     40 H12         15.8630    -1.4410     5.0410 h1         1 1E6       0.057700
     41 H13         15.4090    -2.9300     7.0030 h1         1 1E6       0.029700
     42 H14         15.4480    -1.5050     8.0500 h1         1 1E6       0.029700
     43 H15         17.5000    -2.6660     7.8310 ho         1 1E6       0.404000
     44 H16         10.0800    -1.3490     7.5230 h1         1 1E6       0.040367
     45 H17          8.7020    -2.4570     7.4780 h1         1 1E6       0.040367
     46 H18         10.1750    -2.8420     6.5790 h1         1 1E6       0.040367
     47 H19         16.5390     0.4940     5.5540 ho         1 1E6       0.415000
@<TRIPOS>BOND
     1    10    11 1
     2    10     7 1
     3    11    12 1
     4     7     8 ar
     5     7     6 ar
     6     8     9 ar
     7     6     5 ar
     8     9     2 ar
     9     5     2 ar
    10     2     1 1
    11     4     1 1
    12     1     3 1
    13    12    28 2
    14    12    13 1
    15    13    14 1
    16    26    27 1
    17    26    19 1
    18    14    19 ar
    19    14    15 ar
    20    19    18 ar
    21    15    16 ar
    22    18    17 ar
    23    16    17 ar
    24    16    25 1
    25    17    20 1
    26    20    21 1
    27    21    22 1
    28    24    23 1
    29    22    23 1
    30    22    29 1
    31     5    30 1
    32     8    31 1
    33     9    32 1
    34    11    33 1
    35    11    34 1
    36    13    35 1
    37    15    36 1
    38    18    37 1
    39    21    38 1
    40    21    39 1
    41    22    40 1
    42    23    41 1
    43    23    42 1
    44    24    43 1
    45    27    44 1
    46    27    45 1
    47    27    46 1
    48    29    47 1
@<TRIPOS>SUBSTRUCTURE
     1 1E6         1 TEMP              0 ****  ****    0 ROOT
