@<TRIPOS>MOLECULE
1E6
   47    48     1     0     0
SMALL
bcc


@<TRIPOS>ATOM
      1 C1          -0.0130    -0.3540     0.8360 c          1 1E6       0.915200
      2 C2           1.4530    -0.3600     0.4440 ca         1 1E6      -0.232900
      3 O3          -0.2770    -0.4600     2.0700 o          1 1E6      -0.823300
      4 O4          -0.8750    -0.2650    -0.0780 o          1 1E6      -0.823300
      5 C5           2.4380    -0.0240     1.3980 ca         1 1E6       0.423200
      6 N6           3.7580    -0.1000     1.1660 nb         1 1E6      -0.731000
      7 C7           4.1570    -0.5350    -0.0520 ca         1 1E6       0.454600
      8 C8           3.2530    -0.8440    -1.0870 ca         1 1E6      -0.244300
      9 C9           1.8840    -0.7460    -0.8270 ca         1 1E6      -0.067000
     10 S10          5.8190    -0.7690    -0.4080 ss         1 1E6      -0.279400
     11 C11          6.6940    -0.6460     1.1150 c3         1 1E6      -0.106300
     12 C12          6.6250    -1.9000     1.9680 c          1 1E6       0.672100
     13 N15          5.5580    -1.9980     2.8490 ns         1 1E6      -0.446100
     14 C16          5.1670    -3.1560     3.5410 ca         1 1E6       0.034600
     15 C17          6.0690    -4.1740     3.8860 ca         1 1E6      -0.111000
     16 C18          5.6500    -5.3050     4.5960 ca         1 1E6      -0.018600
     17 C19          4.3140    -5.4260     4.9960 ca         1 1E6       0.117100
     18 C20          3.3890    -4.4240     4.6750 ca         1 1E6      -0.238000
     19 C21          3.7990    -3.3040     3.9550 ca         1 1E6       0.130100
     20 O22          3.9600    -6.5240     5.7660 os         1 1E6      -0.351900
     21 C23          2.6340    -7.0200     5.5410 c3         1 1E6       0.085400
     22 C24          2.6400    -8.4810     6.0020 c3         1 1E6       0.104100
     23 C27          3.2970    -8.6520     7.3780 c3         1 1E6       0.109400
     24 O28          2.8220    -7.7080     8.3120 oh         1 1E6      -0.601800
     25 Cl3          6.8060    -6.5030     4.9590 cl         1 1E6      -0.099400
     26 O37          2.9520    -2.2680     3.6340 os         1 1E6      -0.326900
     27 C38          1.5510    -2.5340     3.7000 c3         1 1E6       0.087700
     28 O43          7.5340    -2.7530     1.9040 o          1 1E6      -0.612100
     29 O44          3.2880    -9.3090     5.0540 oh         1 1E6      -0.596800
     30 H2           2.1280     0.2970     2.4110 h4         1 1E6       0.040100
     31 H3           3.6240    -1.1700    -2.0670 ha         1 1E6       0.133000
     32 H4           1.1340    -0.9790    -1.5990 ha         1 1E6       0.158000
     33 H5           7.7640    -0.5140     0.8040 h1         1 1E6       0.102200
     34 H6           6.3850     0.2540     1.7010 h1         1 1E6       0.102200
     35 H7           4.8500    -1.2900     2.7950 hn         1 1E6       0.359500
     36 H8           7.1270    -4.1000     3.5750 ha         1 1E6       0.186000
     37 H9           2.3410    -4.5230     4.9920 ha         1 1E6       0.152000
     38 H10          2.3610    -6.9530     4.4570 h1         1 1E6       0.060700
     39 H11          1.9170    -6.4200     6.1600 h1         1 1E6       0.060700
     40 H12          1.5770    -8.8510     6.0240 h1         1 1E6       0.085700
     41 H13          3.0250    -9.6520     7.8080 h1         1 1E6       0.053700
     42 H14          4.4120    -8.5780     7.2710 h1         1 1E6       0.053700
     43 H15          3.1800    -6.8480     8.0520 ho         1 1E6       0.413000
     44 H16          1.2260    -2.5820     4.7670 h1         1 1E6       0.069033
     45 H17          1.2990    -3.4820     3.1680 h1         1 1E6       0.069033
     46 H18          1.0880    -1.6470     3.1700 h1         1 1E6       0.069033
     47 H19          4.1780    -8.9510     4.9270 ho         1 1E6       0.414000
@<TRIPOS>BOND
     1     1     2 1   
     2     1     3 1   
     3     1     4 1   
     4     2     5 ar  
     5     2     9 ar  
     6     5     6 ar  
     7     5    30 1   
     8     6     7 ar  
     9     7     8 ar  
    10     7    10 1   
    11     8     9 ar  
    12     8    31 1   
    13     9    32 1   
    14    10    11 1   
    15    11    12 1   
    16    11    33 1   
    17    11    34 1   
    18    12    13 1   
    19    12    28 2   
    20    13    14 1   
    21    13    35 1   
    22    14    15 ar  
    23    14    19 ar  
    24    15    16 ar  
    25    15    36 1   
    26    16    17 ar  
    27    16    25 1   
    28    17    18 ar  
    29    17    20 1   
    30    18    19 ar  
    31    18    37 1   
    32    19    26 1   
    33    20    21 1   
    34    21    22 1   
    35    21    38 1   
    36    21    39 1   
    37    22    23 1   
    38    22    29 1   
    39    22    40 1   
    40    23    24 1   
    41    23    41 1   
    42    23    42 1   
    43    24    43 1   
    44    26    27 1   
    45    27    44 1   
    46    27    45 1   
    47    27    46 1   
    48    29    47 1   
@<TRIPOS>SUBSTRUCTURE
     1 1E6         1 TEMP              0 ****  ****    0 ROOT
