@<TRIPOS>MOLECULE
1E6
   47    48     1     0     0
SMALL
bcc


@<TRIPOS>ATOM
      1 C1           0.0000     0.0000     0.0000 c          1 1E6       0.974200
      2 C2           1.4730     0.0000     0.0000 ca         1 1E6      -0.208900
      3 O3          -0.6750    -0.0020     1.1660 o          1 1E6      -0.877800
      4 O4          -0.6060     0.0050    -1.0530 o          1 1E6      -0.877800
      5 C5           2.1820     0.0000     1.2040 ca         1 1E6       0.429200
      6 N6           3.4970    -0.0000     1.2060 nb         1 1E6      -0.645000
      7 C7           4.1950     0.0000     0.0770 ca         1 1E6       0.473600
      8 C8           3.5540     0.0000    -1.1620 ca         1 1E6      -0.213300
      9 C9           2.1860    -0.0050    -1.2090 ca         1 1E6      -0.046000
     10 S10          5.9560     0.0070     0.1430 ss         1 1E6      -0.403400
     11 C11          6.2020     0.0050     1.9370 c3         1 1E6       0.005700
     12 C12          7.6790     0.0090     2.2400 c          1 1E6       0.576100
     13 N15          8.1040     0.0090     3.5190 ns         1 1E6      -0.028100
     14 C16          9.4740    -0.0810     3.8030 ca         1 1E6      -0.140400
     15 C17         10.3980     0.5210     2.9610 ca         1 1E6      -0.034000
     16 C18         11.7490     0.4320     3.2410 ca         1 1E6      -0.093600
     17 C19         12.1840    -0.2570     4.3640 ca         1 1E6       0.177100
     18 C20         11.2640    -0.8600     5.2090 ca         1 1E6      -0.302000
     19 C21          9.9080    -0.7680     4.9340 ca         1 1E6       0.162100
     20 O22         13.5140    -0.3440     4.6370 os         1 1E6      -0.289900
     21 C23         13.8900    -1.0700     5.8090 c3         1 1E6       0.189400
     22 C24         15.4140    -1.0570     5.9490 c3         1 1E6       0.178100
     23 C27         15.8240    -1.9370     7.1310 c3         1 1E6       0.205400
     24 O28         17.2490    -2.0200     7.1910 oh         1 1E6      -0.588800
     25 Cl3         12.9040     1.1860     2.1850 cl         1 1E6      -0.014400
     26 O37          9.0040    -1.3540     5.7640 os         1 1E6      -0.307900
     27 C38          9.5220    -2.0420     6.9050 c3         1 1E6       0.249700
     28 O43          8.4850     0.0150     1.3340 o          1 1E6      -0.622100
     29 O44         15.8600     0.2810     6.1730 oh         1 1E6      -0.573800
     30 H2           1.6430     0.0010     2.1440 h4         1 1E6       0.009100
     31 H3           4.1270     0.1570    -2.0680 ha         1 1E6       0.109000
     32 H4           1.6780    -0.2360    -2.1370 ha         1 1E6       0.127000
     33 H5           5.7490    -0.8820     2.3620 h1         1 1E6       0.063200
     34 H6           5.7420     0.8870     2.3660 h1         1 1E6       0.063200
     35 H7           7.4450     0.1130     4.2650 hn         1 1E6       0.176500
     36 H8          10.0610     1.0600     2.0840 ha         1 1E6       0.165000
     37 H9          11.6040    -1.3960     6.0870 ha         1 1E6       0.136000
     38 H10         13.4440    -0.6050     6.6800 h1         1 1E6       0.008200
     39 H11         13.5430    -2.0930     5.7270 h1         1 1E6       0.008200
     40 H12         15.8630    -1.4410     5.0410 h1         1 1E6       0.017700
     41 H13         15.4090    -2.9300     7.0030 h1         1 1E6      -0.007300
     42 H14         15.4480    -1.5050     8.0500 h1         1 1E6      -0.007300
     43 H15         17.5000    -2.6660     7.8310 ho         1 1E6       0.390000
     44 H16         10.0800    -1.3490     7.5230 h1         1 1E6      -0.003633
     45 H17          8.7020    -2.4570     7.4780 h1         1 1E6      -0.003633
     46 H18         10.1750    -2.8420     6.5790 h1         1 1E6      -0.003633
     47 H19         16.5390     0.4940     5.5540 ho         1 1E6       0.399000
@<TRIPOS>BOND
     1     1     2 1   
     2     1     3 1   
     3     1     4 1   
     4     2     5 ar  
     5     2     9 ar  
     6     5     6 ar  
     7     5    30 1   
     8     6     7 ar  
     9     7     8 ar  
    10     7    10 1   
    11     8     9 ar  
    12     8    31 1   
    13     9    32 1   
    14    10    11 1   
    15    11    12 1   
    16    11    33 1   
    17    11    34 1   
    18    12    13 1   
    19    12    28 2   
    20    13    14 1   
    21    13    35 1   
    22    14    15 ar  
    23    14    19 ar  
    24    15    16 ar  
    25    15    36 1   
    26    16    17 ar  
    27    16    25 1   
    28    17    18 ar  
    29    17    20 1   
    30    18    19 ar  
    31    18    37 1   
    32    19    26 1   
    33    20    21 1   
    34    21    22 1   
    35    21    38 1   
    36    21    39 1   
    37    22    23 1   
    38    22    29 1   
    39    22    40 1   
    40    23    24 1   
    41    23    41 1   
    42    23    42 1   
    43    24    43 1   
    44    26    27 1   
    45    27    44 1   
    46    27    45 1   
    47    27    46 1   
    48    29    47 1   
@<TRIPOS>SUBSTRUCTURE
     1 1E6         1 TEMP              0 ****  ****    0 ROOT
