@<TRIPOS>MOLECULE
1E7
   35    36     1     0     0
SMALL
bcc


@<TRIPOS>ATOM
      1 C1           0.0570    -0.2170     0.0280 c          1 1E7       0.672100
      2 N2           1.4090    -0.5200     0.0060 ns         1 1E7      -0.447100
      3 C3           2.3500    -0.1900     0.9950 ca         1 1E7       0.054600
      4 O4          -0.5440     0.1570     1.0560 o          1 1E7      -0.613100
      5 C6          -0.7120    -0.4310    -1.2640 c3         1 1E7      -0.106300
      6 S7          -0.6880     0.9550    -2.3500 ss         1 1E7      -0.281400
      7 C10          0.8240     0.9310    -3.1620 ca         1 1E7       0.454600
      8 C11          1.1590     2.0940    -3.8810 ca         1 1E7      -0.245300
      9 C12          2.4120     2.1590    -4.4980 ca         1 1E7      -0.068000
     10 C13          3.2930     1.0830    -4.3730 ca         1 1E7      -0.231900
     11 C14          2.8450    -0.0560    -3.6710 ca         1 1E7       0.423200
     12 N15          1.6420    -0.1450    -3.0820 nb         1 1E7      -0.730000
     13 C19          4.7130     1.1330    -4.9070 c          1 1E7       0.915200
     14 O20          5.5580     0.3650    -4.3590 o          1 1E7      -0.823800
     15 O21          4.9730     1.9390    -5.8380 o          1 1E7      -0.823800
     16 C23          1.9980     0.0420     2.3360 ca         1 1E7      -0.133000
     17 C24          2.9840     0.3400     3.2810 ca         1 1E7       0.002400
     18 C25          4.3290     0.4140     2.9330 ca         1 1E7      -0.125000
     19 C26          4.7020     0.1810     1.6100 ca         1 1E7      -0.179000
     20 C27          3.7400    -0.1180     0.6450 ca         1 1E7       0.097100
     21 O31          4.0580    -0.4040    -0.6670 os         1 1E7      -0.334900
     22 Cl3          2.5180     0.6190     4.9000 cl         1 1E7      -0.122400
     23 C33          5.3010     0.1080    -1.1470 c3         1 1E7       0.090700
     24 H1           1.8100    -0.7730    -0.8770 hn         1 1E7       0.359500
     25 H2          -0.3780    -1.3670    -1.7760 h1         1 1E7       0.102200
     26 H3          -1.7940    -0.5460    -0.9930 h1         1 1E7       0.102200
     27 H4           0.4540     2.9330    -3.9380 ha         1 1E7       0.132000
     28 H5           2.7250     3.0450    -5.0700 ha         1 1E7       0.157000
     29 H6           3.5180    -0.9290    -3.5640 h4         1 1E7       0.040100
     30 H8           0.9380     0.0050     2.6440 ha         1 1E7       0.182000
     31 H9           5.0940     0.6530     3.6850 ha         1 1E7       0.137000
     32 H10          5.7630     0.2390     1.3270 ha         1 1E7       0.145000
     33 H11          5.2150     0.0130    -2.2700 h1         1 1E7       0.066033
     34 H12          5.4370     1.1750    -0.8530 h1         1 1E7       0.066033
     35 H13          6.1390    -0.5160    -0.7540 h1         1 1E7       0.066033
@<TRIPOS>BOND
     1     1     2 1   
     2     1     4 2   
     3     1     5 1   
     4     2     3 1   
     5     2    24 1   
     6     3    16 ar  
     7     3    20 ar  
     8     5     6 1   
     9     5    25 1   
    10     5    26 1   
    11     6     7 1   
    12     7     8 ar  
    13     7    12 ar  
    14     8     9 ar  
    15     8    27 1   
    16     9    10 ar  
    17     9    28 1   
    18    10    11 ar  
    19    10    13 1   
    20    11    12 ar  
    21    11    29 1   
    22    13    14 1   
    23    13    15 1   
    24    16    17 ar  
    25    16    30 1   
    26    17    18 ar  
    27    17    22 1   
    28    18    19 ar  
    29    18    31 1   
    30    19    20 ar  
    31    19    32 1   
    32    20    21 1   
    33    21    23 1   
    34    23    33 1   
    35    23    34 1   
    36    23    35 1   
@<TRIPOS>SUBSTRUCTURE
     1 1E7         1 TEMP              0 ****  ****    0 ROOT
