@<TRIPOS>MOLECULE
1E7
   35    36     1     0     0
SMALL
bcc


@<TRIPOS>ATOM
      1 C1           0.0000     0.0000     0.0000 c          1 1E7       0.577100
      2 N2           1.3490     0.0000     0.0000 ns         1 1E7      -0.032100
      3 C3           2.0490     0.0000     1.2140 ca         1 1E7      -0.099400
      4 O4          -0.6060    -0.0810     1.0480 o          1 1E7      -0.618100
      5 C6          -0.7530     0.1080    -1.3010 c3         1 1E7       0.005700
      6 S7          -2.5320     0.0890    -0.9700 ss         1 1E7      -0.404400
      7 C10         -3.1500     0.2240    -2.6160 ca         1 1E7       0.474600
      8 C11         -4.5270     0.2530    -2.8330 ca         1 1E7      -0.212300
      9 C12         -5.0030     0.3580    -4.1110 ca         1 1E7      -0.046000
     10 C13         -4.0800     0.4330    -5.1650 ca         1 1E7      -0.208900
     11 C14         -2.7140     0.3990    -4.8750 ca         1 1E7       0.430200
     12 N15         -2.2980     0.3020    -3.6310 nb         1 1E7      -0.645000
     13 C19         -4.5450     0.5460    -6.5600 c          1 1E7       0.975200
     14 O20         -5.7340     0.5750    -6.8020 o          1 1E7      -0.877800
     15 O21         -3.6500     0.6180    -7.5640 o          1 1E7      -0.877800
     16 C23          1.5410    -0.6830     2.3090 ca         1 1E7      -0.074000
     17 C24          2.2350    -0.6810     3.5060 ca         1 1E7      -0.051600
     18 C25          3.4340    -0.0010     3.6130 ca         1 1E7      -0.080000
     19 C26          3.9450     0.6810     2.5250 ca         1 1E7      -0.189000
     20 C27          3.2600     0.6800     1.3220 ca         1 1E7       0.119100
     21 O31          3.7640     1.3470     0.2480 os         1 1E7      -0.310900
     22 Cl3          1.5980    -1.5350     4.8770 cl         1 1E7      -0.035400
     23 C33          5.0110     2.0230     0.4320 c3         1 1E7       0.248700
     24 H1           1.8490    -0.0420    -0.8660 hn         1 1E7       0.178500
     25 H2          -0.4950    -0.7290    -1.9380 h1         1 1E7       0.064200
     26 H3          -0.4870     1.0350    -1.7960 h1         1 1E7       0.064200
     27 H4          -5.2130     0.1930    -1.9970 ha         1 1E7       0.107000
     28 H5          -6.0690     0.3830    -4.3040 ha         1 1E7       0.127000
     29 H6          -1.9920     0.4580    -5.6800 h4         1 1E7       0.009100
     30 H8           0.6010    -1.2160     2.2270 ha         1 1E7       0.164000
     31 H9           3.9730    -0.0000     4.5530 ha         1 1E7       0.108000
     32 H10          4.8860     1.2120     2.6110 ha         1 1E7       0.119000
     33 H11          4.9060     2.7670     1.2120 h1         1 1E7      -0.003300
     34 H12          5.2990     2.5070    -0.4930 h1         1 1E7      -0.003300
     35 H13          5.7720     1.3060     0.7170 h1         1 1E7      -0.003300
@<TRIPOS>BOND
     1     1     2 1   
     2     1     4 2   
     3     1     5 1   
     4     2     3 1   
     5     2    24 1   
     6     3    16 ar  
     7     3    20 ar  
     8     5     6 1   
     9     5    25 1   
    10     5    26 1   
    11     6     7 1   
    12     7     8 ar  
    13     7    12 ar  
    14     8     9 ar  
    15     8    27 1   
    16     9    10 ar  
    17     9    28 1   
    18    10    11 ar  
    19    10    13 1   
    20    11    12 ar  
    21    11    29 1   
    22    13    14 1   
    23    13    15 1   
    24    16    17 ar  
    25    16    30 1   
    26    17    18 ar  
    27    17    22 1   
    28    18    19 ar  
    29    18    31 1   
    30    19    20 ar  
    31    19    32 1   
    32    20    21 1   
    33    21    23 1   
    34    23    33 1   
    35    23    34 1   
    36    23    35 1   
@<TRIPOS>SUBSTRUCTURE
     1 1E7         1 TEMP              0 ****  ****    0 ROOT
