@<TRIPOS>MOLECULE
molecule
   57    61     1     0     0
SMALL
bcc


@<TRIPOS>ATOM
      1 N1           0.0000     0.0000     0.0000 nb         1 1E8      -0.832000
      2 C2           1.3210     0.0000     0.0000 ca         1 1E8       0.754900
      3 N3           2.0320     0.0000     1.1060 nb         1 1E8      -0.801000
      4 C4           1.4350     0.0010     2.2980 ca         1 1E8       0.536800
      5 C5           0.0290     0.0020     2.3480 ca         1 1E8      -0.531500
      6 C6          -0.6860     0.0010     1.1390 ca         1 1E8       0.791200
      7 NAB         -2.0680     0.0010     1.1330 nv         1 1E8      -1.017500
      8 OAC          5.4480     3.1950     4.5880 o          1 1E8      -0.611100
      9 CAD          7.2140     2.0440     5.5830 ce         1 1E8      -0.254200
     10 CAE         -6.7420    -3.2320     8.1060 ca         1 1E8      -0.161000
     11 CAF         -7.6480    -2.2370     7.7920 ca         1 1E8      -0.094000
     12 CAG         -5.4340    -3.1440     7.6660 ca         1 1E8      -0.094000
     13 CAI         -7.2490    -1.1500     7.0400 ca         1 1E8      -0.180000
     14 CAJ         -5.0310    -2.0610     6.9080 ca         1 1E8      -0.180000
     15 CAK         -3.9400    -0.8870     4.3450 ca         1 1E8      -0.149000
     16 CAL         -3.3340     0.8930     5.8480 ca         1 1E8      -0.149000
     17 CAM         -2.6620    -0.8900     3.8280 ca         1 1E8      -0.096000
     18 CAN         -2.0550     0.8980     5.3310 ca         1 1E8      -0.096000
     19 CAO          5.0440    -1.2660     5.2440 c3         1 1E8      -0.100400
     20 CAP          3.5680    -1.2470     4.8400 c3         1 1E8      -0.095400
     21 CAQ          5.3520    -0.0300     6.0940 c3         1 1E8       0.096000
     22 CAR          3.5720     1.2500     4.8360 c3         1 1E8       0.095000
     23 NAU          0.7810     0.0020     4.4550 nc         1 1E8      -0.497100
     24 CAY         -5.9370    -1.0580     6.5970 ca         1 1E8       0.132100
     25 CAZ         -4.2800     0.0060     5.3530 ca         1 1E8       0.114100
     26 CBA         -1.7100     0.0040     4.3180 ca         1 1E8      -0.107900
     27 CBB         -0.3350     0.0020     3.7650 cd         1 1E8       0.445500
     28 CBE          3.2830    -0.0000     4.0000 c3         1 1E8       0.073000
     29 NBF          1.8770     0.0010     3.5870 na         1 1E8      -0.025800
     30 NBG          4.9460     1.1700     5.3490 n          1 1E8      -0.487800
     31 H2           1.8400    -0.0010    -0.9510 h5         1 1E8       0.062100
     32 HAA          9.0740     2.9780     5.8050 ha         1 1E8       0.130000
     33 HAAA         7.6940     4.0170     5.0730 ha         1 1E8       0.130000
     34 HNAB        -2.5650    -0.4980     0.4230 hn         1 1E8       0.447800
     35 HNAA        -2.5700     0.5350     1.8150 hn         1 1E8       0.447800
     36 HAD          7.5660     1.1040     5.9910 ha         1 1E8       0.129000
     37 HAF         -8.6720    -2.3080     8.1380 ha         1 1E8       0.134000
     38 HAG         -4.7260    -3.9270     7.9120 ha         1 1E8       0.134000
     39 HAI         -7.9590    -0.3690     6.7960 ha         1 1E8       0.144500
     40 HAJ         -4.0060    -1.9920     6.5640 ha         1 1E8       0.144500
     41 HAK         -4.6800    -1.5800     3.9630 ha         1 1E8       0.150500
     42 HAL         -3.6020     1.5880     6.6340 ha         1 1E8       0.150500
     43 HAM         -2.3980    -1.5870     3.0410 ha         1 1E8       0.151000
     44 HAN         -1.3180     1.5920     5.7160 ha         1 1E8       0.151000
     45 HAO          5.6610    -1.2540     4.3530 hc         1 1E8       0.054200
     46 HAOA         5.2490    -2.1610     5.8200 hc         1 1E8       0.054200
     47 HAP          3.3440    -2.1320     4.2570 hc         1 1E8       0.060200
     48 HAPA         2.9520    -1.2300     5.7310 hc         1 1E8       0.060200
     49 HAQ          6.4150     0.0130     6.2990 h1         1 1E8       0.054700
     50 HAQA         4.7990    -0.0840     7.0240 h1         1 1E8       0.054700
     51 HAR          3.4680     2.1330     4.2160 h1         1 1E8       0.077700
     52 HARA         2.8770     1.2990     5.6660 h1         1 1E8       0.077700
     53 HBE          3.9220    -0.0030     3.1240 h1         1 1E8       0.098700
     54 OAV         -5.5420     0.0110     5.8570 os         1 1E8      -0.249200
     55 CAW          5.8180     2.1760     5.1410 c          1 1E8       0.668300
     56 HAE         -7.0570    -4.0830     8.6990 ha         1 1E8       0.132000
     57 CAA          8.0450     3.0770     5.4810 c2         1 1E8      -0.128000
@<TRIPOS>BOND
     1     2     1 ar  
     2     1     6 ar  
     3     3     2 ar  
     4     2    31 1   
     5     3     4 ar  
     6    29     4 1   
     7     4     5 ar  
     8     5     6 ar  
     9     5    27 1   
    10     6     7 1   
    11    57     9 2   
    12    57    32 1   
    13    57    33 1   
    14     7    34 1   
    15     7    35 1   
    16     8    55 2   
    17     9    55 1   
    18     9    36 1   
    19    11    10 ar  
    20    10    12 ar  
    21    10    56 1   
    22    11    13 ar  
    23    11    37 1   
    24    12    14 ar  
    25    12    38 1   
    26    13    24 ar  
    27    13    39 1   
    28    24    14 ar  
    29    14    40 1   
    30    17    15 ar  
    31    15    25 ar  
    32    15    41 1   
    33    25    16 ar  
    34    18    16 ar  
    35    16    42 1   
    36    17    26 ar  
    37    17    43 1   
    38    26    18 ar  
    39    18    44 1   
    40    21    19 1   
    41    19    20 1   
    42    19    45 1   
    43    19    46 1   
    44    28    20 1   
    45    20    47 1   
    46    20    48 1   
    47    30    21 1   
    48    21    49 1   
    49    21    50 1   
    50    30    22 1   
    51    22    28 1   
    52    22    51 1   
    53    22    52 1   
    54    29    23 1   
    55    23    27 2   
    56    25    54 1   
    57    24    54 1   
    58    55    30 1   
    59    27    26 1   
    60    28    29 1   
    61    28    53 1   
@<TRIPOS>SUBSTRUCTURE
     1 1E8         1 TEMP              0 ****  ****    0 ROOT
