@<TRIPOS>MOLECULE
1E8
   57    61     1     0     0
SMALL
bcc


@<TRIPOS>ATOM
      1 N1           0.3840    -1.6040    -0.1880 nb         1 1E8      -0.798000
      2 C2           1.7170    -1.4240     0.0120 ca         1 1E8       0.695900
      3 N3           2.3780    -0.9430     1.0890 nb         1 1E8      -0.739000
      4 C4           1.5390    -0.6000     2.1140 ca         1 1E8       0.477800
      5 C5           0.0940    -0.7560     2.0590 ca         1 1E8      -0.495500
      6 C6          -0.4600    -1.2730     0.8480 ca         1 1E8       0.757200
      7 NAB         -1.8150    -1.4790     0.7320 nv         1 1E8      -0.953500
      8 OAC          5.0460     3.3730     3.4930 o          1 1E8      -0.592100
      9 CAD          6.8330     2.9110     5.0030 ce         1 1E8      -0.227200
     10 CAE         -7.2900     2.5860     7.7840 ca         1 1E8      -0.144000
     11 CAF         -6.0260     2.0430     8.0140 ca         1 1E8      -0.110000
     12 CAG         -7.9980     2.2520     6.6290 ca         1 1E8      -0.110000
     13 CAI         -5.4600     1.1630     7.0930 ca         1 1E8      -0.151500
     14 CAJ         -7.4490     1.3800     5.6910 ca         1 1E8      -0.151500
     15 CAK         -3.6180     1.0730     4.6690 ca         1 1E8      -0.168000
     16 CAL         -3.8550    -1.3250     4.2770 ca         1 1E8      -0.168000
     17 CAM         -2.2970     1.0060     4.2330 ca         1 1E8      -0.087500
     18 CAN         -2.5370    -1.3750     3.8370 ca         1 1E8      -0.087500
     19 CAO          4.9960    -0.6350     5.3780 c3         1 1E8      -0.103400
     20 CAP          3.5860    -0.9050     4.8980 c3         1 1E8      -0.098400
     21 CAQ          5.1200     0.7680     5.9780 c3         1 1E8       0.084000
     22 CAR          3.2820     1.5760     4.6030 c3         1 1E8       0.073000
     23 NAU          0.6870     0.1360     4.0910 nc         1 1E8      -0.509100
     24 CAY         -6.1790     0.8380     5.9370 ca         1 1E8       0.097100
     25 CAZ         -4.3910    -0.0930     4.6880 ca         1 1E8       0.119100
     26 CBA         -1.7530    -0.2120     3.8040 ca         1 1E8      -0.131900
     27 CBB         -0.3720    -0.2740     3.3460 cd         1 1E8       0.427500
     28 CBE          3.1580     0.1870     3.9060 c3         1 1E8       0.053000
     29 NBF          1.8160    -0.0260     3.3720 na         1 1E8       0.003200
     30 NBG          4.6100     1.8150     5.1230 n          1 1E8      -0.458800
     31 H2           2.3580    -1.7150    -0.8490 h5         1 1E8       0.053100
     32 HAA          8.9030     3.1770     4.5880 ha         1 1E8       0.126000
     33 HAAA         7.8140     2.8940     3.1080 ha         1 1E8       0.126000
     34 HNAB        -2.4020    -1.0500     1.4080 hn         1 1E8       0.439800
     35 HNAA        -2.2010    -1.7030    -0.1540 hn         1 1E8       0.439800
     36 HAD          6.9060     3.0380     6.0950 ha         1 1E8       0.142000
     37 HAF         -5.4710     2.3050     8.9270 ha         1 1E8       0.137000
     38 HAG         -8.9960     2.6810     6.4520 ha         1 1E8       0.137000
     39 HAI         -4.4640     0.7280     7.2640 ha         1 1E8       0.149500
     40 HAJ         -7.9950     1.1040     4.7790 ha         1 1E8       0.149500
     41 HAK         -4.0500     2.0290     5.0010 ha         1 1E8       0.154000
     42 HAL         -4.4790    -2.2290     4.3080 ha         1 1E8       0.154000
     43 HAM         -1.6770     1.9160     4.2230 ha         1 1E8       0.150500
     44 HAN         -2.1010    -2.3380     3.5260 ha         1 1E8       0.150500
     45 HAO          5.2740    -1.3820     6.1650 hc         1 1E8       0.053700
     46 HAOA         5.7160    -0.7520     4.5270 hc         1 1E8       0.053700
     47 HAP          3.5430    -1.9110     4.4060 hc         1 1E8       0.059700
     48 HAPA         2.8840    -0.9200     5.7730 hc         1 1E8       0.059700
     49 HAQ          4.5270     0.8010     6.9390 h1         1 1E8       0.055200
     50 HAQA         6.2000     0.9580     6.2320 h1         1 1E8       0.055200
     51 HAR          3.0140     2.3880     3.8690 h1         1 1E8       0.082700
     52 HARA         2.5670     1.6200     5.4720 h1         1 1E8       0.082700
     53 HBE          3.8550     0.1650     3.0150 h1         1 1E8       0.097700
     54 OAV         -5.7400    -0.1160     5.0210 os         1 1E8      -0.249200
     55 CAW          5.4610     2.7070     4.4630 c          1 1E8       0.651300
     56 HAE         -7.7310     3.2780     8.5170 ha         1 1E8       0.136000
     57 CAA          7.8910     2.9950     4.2000 c2         1 1E8      -0.150000
@<TRIPOS>BOND
     1     1     2 ar  
     2     1     6 ar  
     3     2     3 ar  
     4     2    31 1   
     5     3     4 ar  
     6     4     5 ar  
     7     4    29 1   
     8     5     6 ar  
     9     5    27 1   
    10     6     7 1   
    11     7    34 1   
    12     7    35 1   
    13     8    55 2   
    14     9    36 1   
    15     9    55 1   
    16     9    57 2   
    17    10    11 ar  
    18    10    12 ar  
    19    10    56 1   
    20    11    13 ar  
    21    11    37 1   
    22    12    14 ar  
    23    12    38 1   
    24    13    24 ar  
    25    13    39 1   
    26    14    24 ar  
    27    14    40 1   
    28    15    17 ar  
    29    15    25 ar  
    30    15    41 1   
    31    16    18 ar  
    32    16    25 ar  
    33    16    42 1   
    34    17    26 ar  
    35    17    43 1   
    36    18    26 ar  
    37    18    44 1   
    38    19    20 1   
    39    19    21 1   
    40    19    45 1   
    41    19    46 1   
    42    20    28 1   
    43    20    47 1   
    44    20    48 1   
    45    21    30 1   
    46    21    49 1   
    47    21    50 1   
    48    22    28 1   
    49    22    30 1   
    50    22    51 1   
    51    22    52 1   
    52    23    27 2   
    53    23    29 1   
    54    24    54 1   
    55    25    54 1   
    56    26    27 1   
    57    28    29 1   
    58    28    53 1   
    59    30    55 1   
    60    32    57 1   
    61    33    57 1   
@<TRIPOS>SUBSTRUCTURE
     1 1E8         1 TEMP              0 ****  ****    0 ROOT
