@<TRIPOS>MOLECULE
1E8
   57    61     1     0     0
SMALL
bcc


@<TRIPOS>ATOM
      1 N1           0.0000     0.0000     0.0000 nb         1 1E8      -0.742000
      2 C2           1.3210     0.0000     0.0000 ca         1 1E8       0.711900
      3 N3           2.0320     0.0000     1.1060 nb         1 1E8      -0.694000
      4 C4           1.4350     0.0010     2.2980 ca         1 1E8       0.350800
      5 C5           0.0290     0.0020     2.3480 ca         1 1E8      -0.549500
      6 C6          -0.6860     0.0010     1.1390 ca         1 1E8       0.614200
      7 NAB         -2.0680     0.0010     1.1330 nv         1 1E8      -0.539500
      8 OAC          5.4480     3.1950     4.5880 o          1 1E8      -0.651100
      9 CAD          7.2140     2.0440     5.5830 ce         1 1E8      -0.256200
     10 CAE         -6.7420    -3.2320     8.1060 ca         1 1E8      -0.140000
     11 CAF         -7.6480    -2.2370     7.7920 ca         1 1E8      -0.060500
     12 CAG         -5.4340    -3.1440     7.6660 ca         1 1E8      -0.060500
     13 CAI         -7.2490    -1.1500     7.0400 ca         1 1E8      -0.170000
     14 CAJ         -5.0310    -2.0610     6.9080 ca         1 1E8      -0.170000
     15 CAK         -3.9400    -0.8870     4.3450 ca         1 1E8      -0.126500
     16 CAL         -3.3340     0.8930     5.8480 ca         1 1E8      -0.126500
     17 CAM         -2.6620    -0.8900     3.8280 ca         1 1E8      -0.072000
     18 CAN         -2.0550     0.8980     5.3310 ca         1 1E8      -0.072000
     19 CAO          5.0440    -1.2660     5.2440 c3         1 1E8      -0.036400
     20 CAP          3.5680    -1.2470     4.8400 c3         1 1E8      -0.043400
     21 CAQ          5.3520    -0.0300     6.0940 c3         1 1E8       0.035000
     22 CAR          3.5720     1.2500     4.8360 c3         1 1E8       0.034000
     23 NAU          0.7810     0.0020     4.4550 nc         1 1E8      -0.627100
     24 CAY         -5.9370    -1.0580     6.5970 ca         1 1E8       0.140100
     25 CAZ         -4.2800     0.0060     5.3530 ca         1 1E8       0.116100
     26 CBA         -1.7100     0.0040     4.3180 ca         1 1E8      -0.111900
     27 CBB         -0.3350     0.0020     3.7650 cd         1 1E8       0.485500
     28 CBE          3.2830    -0.0000     4.0000 c3         1 1E8      -0.048000
     29 NBF          1.8770     0.0010     3.5870 na         1 1E8       0.386200
     30 NBG          4.9460     1.1700     5.3490 n          1 1E8      -0.143800
     31 H2           1.8400    -0.0010    -0.9510 h5         1 1E8      -0.003900
     32 HAA          7.6940     4.0170     5.0730 ha         1 1E8       0.091500
     33 HAAA         9.0740     2.9780     5.8050 ha         1 1E8       0.091500
     34 HNAB        -2.5650    -0.4570     0.3960 hn         1 1E8       0.282800
     35 HNAA        -2.5700     0.4970     1.8430 hn         1 1E8       0.282800
     36 HAD          7.5660     1.1040     5.9900 ha         1 1E8       0.113000
     37 HAF         -8.6720    -2.3080     8.1380 ha         1 1E8       0.102500
     38 HAG         -4.7260    -3.9270     7.9120 ha         1 1E8       0.102500
     39 HAI         -7.9590    -0.3690     6.7960 ha         1 1E8       0.121500
     40 HAJ         -4.0060    -1.9920     6.5640 ha         1 1E8       0.121500
     41 HAK         -4.6800    -1.5800     3.9630 ha         1 1E8       0.121500
     42 HAL         -3.6020     1.5880     6.6340 ha         1 1E8       0.121500
     43 HAM         -2.3980    -1.5870     3.0410 ha         1 1E8       0.119000
     44 HAN         -1.3180     1.5920     5.7160 ha         1 1E8       0.119000
     45 HAO          5.6610    -1.2540     4.3530 hc         1 1E8       0.024200
     46 HAOA         5.2490    -2.1610     5.8200 hc         1 1E8       0.024200
     47 HAP          3.3430    -2.1330     4.2580 hc         1 1E8       0.032700
     48 HAPA         2.9520    -1.2290     5.7310 hc         1 1E8       0.032700
     49 HAQ          6.4150     0.0130     6.2990 h1         1 1E8       0.030200
     50 HAQA         4.7990    -0.0840     7.0240 h1         1 1E8       0.030200
     51 HAR          2.8770     1.2990     5.6660 h1         1 1E8       0.049700
     52 HARA         3.4680     2.1330     4.2160 h1         1 1E8       0.049700
     53 HBE          3.9220    -0.0030     3.1250 h1         1 1E8       0.069700
     54 OAV         -5.5420     0.0110     5.8570 os         1 1E8      -0.221200
     55 CAW          5.8180     2.1760     5.1410 c          1 1E8       0.600300
     56 HAE         -7.0570    -4.0830     8.6990 ha         1 1E8       0.105000
     57 CAA          8.0450     3.0770     5.4810 c2         1 1E8      -0.051000
@<TRIPOS>BOND
     1     1     2 ar  
     2     1     6 ar  
     3     2     3 ar  
     4     2    31 1   
     5     3     4 ar  
     6     4     5 ar  
     7     4    29 1   
     8     5     6 ar  
     9     5    27 1   
    10     6     7 1   
    11     7    34 1   
    12     7    35 1   
    13     8    55 2   
    14     9    36 1   
    15     9    55 1   
    16     9    57 2   
    17    10    11 ar  
    18    10    12 ar  
    19    10    56 1   
    20    11    13 ar  
    21    11    37 1   
    22    12    14 ar  
    23    12    38 1   
    24    13    24 ar  
    25    13    39 1   
    26    14    24 ar  
    27    14    40 1   
    28    15    17 ar  
    29    15    25 ar  
    30    15    41 1   
    31    16    18 ar  
    32    16    25 ar  
    33    16    42 1   
    34    17    26 ar  
    35    17    43 1   
    36    18    26 ar  
    37    18    44 1   
    38    19    20 1   
    39    19    21 1   
    40    19    45 1   
    41    19    46 1   
    42    20    28 1   
    43    20    47 1   
    44    20    48 1   
    45    21    30 1   
    46    21    49 1   
    47    21    50 1   
    48    22    28 1   
    49    22    30 1   
    50    22    51 1   
    51    22    52 1   
    52    23    27 2   
    53    23    29 1   
    54    24    54 1   
    55    25    54 1   
    56    26    27 1   
    57    28    29 1   
    58    28    53 1   
    59    30    55 1   
    60    32    57 1   
    61    33    57 1   
@<TRIPOS>SUBSTRUCTURE
     1 1E8         1 TEMP              0 ****  ****    0 ROOT
