@<TRIPOS>MOLECULE
molecule
   52    55     1     0     0
SMALL
bcc


@<TRIPOS>ATOM
      1 O1           0.0000     0.0000     0.0000 o          1 1EA      -0.819800
      2 C22          1.2140     0.0000     0.0000 c          1 1EA       0.884200
      3 O2           1.8880     0.0000     1.1670 o          1 1EA      -0.819800
      4 C3           1.9540    -0.0060    -1.2800 ca         1 1EA      -0.043600
      5 C4           1.2560    -0.1290    -2.5600 ca         1 1EA      -0.128300
      6 C5          -0.1350    -0.2460    -2.6260 ca         1 1EA      -0.109000
      7 C6          -0.7470    -0.3580    -3.8430 ca         1 1EA       0.076900
      8 F1          -2.0920    -0.4700    -3.9060 f          1 1EA      -0.159900
      9 C7           0.0020    -0.3570    -5.0200 ca         1 1EA      -0.164000
     10 C8           1.3580    -0.2470    -4.9900 ca         1 1EA      -0.171300
     11 C9           2.0210    -0.1290    -3.7550 ca         1 1EA       0.395600
     12 N1           3.3490    -0.0170    -3.6950 nb         1 1EA      -0.719000
     13 C1           3.9970     0.0940    -2.5540 cp         1 1EA       0.476800
     14 C2           3.3360     0.1100    -1.3160 ca         1 1EA      -0.230300
     15 C10          5.4740     0.2140    -2.5780 cp         1 1EA      -0.153500
     16 C15          6.1080     1.2000    -1.8240 ca         1 1EA      -0.070000
     17 C14          7.4810     1.3080    -1.8490 ca         1 1EA      -0.113300
     18 C24          8.1680     2.3730    -1.0320 c3         1 1EA      -0.023400
     19 C26          7.6800     3.7520    -1.4820 c3         1 1EA      -0.085600
     20 C25          7.8390     2.1720     0.4480 c3         1 1EA      -0.085600
     21 C13          8.2350     0.4350    -2.6240 ca         1 1EA       0.127100
     22 C12          7.6060    -0.5480    -3.3770 ca         1 1EA      -0.218000
     23 C11          6.2330    -0.6650    -3.3520 ca         1 1EA      -0.018300
     24 C23          5.5510    -1.7360    -4.1630 c3         1 1EA      -0.042800
     25 O3           9.5880     0.5440    -2.6460 os         1 1EA      -0.256200
     26 C16         10.2780    -0.2550    -3.5010 ca         1 1EA       0.116100
     27 C21         10.3110     0.0400    -4.8560 ca         1 1EA      -0.140000
     28 C20         11.0140    -0.7740    -5.7220 ca         1 1EA      -0.121500
     29 C19         11.6840    -1.8830    -5.2400 ca         1 1EA      -0.140000
     30 C18         11.6540    -2.1800    -3.8900 ca         1 1EA      -0.121500
     31 C17         10.9570    -1.3660    -3.0180 ca         1 1EA      -0.140000
     32 H5          -0.7120    -0.3680    -1.7170 ha         1 1EA       0.218000
     33 H7          -0.5040    -0.4470    -5.9730 ha         1 1EA       0.123000
     34 H8           1.9240    -0.2480    -5.9130 ha         1 1EA       0.132000
     35 H2           3.9010     0.2040    -0.3960 ha         1 1EA       0.168000
     36 H15          5.5180     1.9180    -1.2660 ha         1 1EA       0.152000
     37 H3           9.2390     2.3050    -1.1770 hc         1 1EA       0.060700
     38 H262         8.3760     4.5100    -1.1420 hc         1 1EA       0.034867
     39 H261         7.6170     3.7790    -2.5630 hc         1 1EA       0.034867
     40 H263         6.7010     3.9450    -1.0580 hc         1 1EA       0.034867
     41 H252         6.8620     2.5900     0.6610 hc         1 1EA       0.034867
     42 H251         8.5850     2.6710     1.0550 hc         1 1EA       0.034867
     43 H4           7.8360     1.1140     0.6770 hc         1 1EA       0.034867
     44 H12          8.1960    -1.2280    -3.9790 ha         1 1EA       0.137000
     45 H232         6.2780    -2.4850    -4.4560 hc         1 1EA       0.047700
     46 H233         4.7740    -2.2000    -3.5680 hc         1 1EA       0.047700
     47 H231         5.1120    -1.2940    -5.0490 hc         1 1EA       0.047700
     48 H21          9.7860     0.9080    -5.2340 ha         1 1EA       0.145500
     49 H20         11.0390    -0.5440    -6.7800 ha         1 1EA       0.129000
     50 H19         12.2330    -2.5220    -5.9210 ha         1 1EA       0.125000
     51 H18         12.1820    -3.0480    -3.5150 ha         1 1EA       0.129000
     52 H17         10.9330    -1.5990    -1.9610 ha         1 1EA       0.145500
@<TRIPOS>BOND
     1     1     2 1   
     2     3     2 1   
     3    20    18 1   
     4     2     4 1   
     5    18    19 1   
     6    18    17 1   
     7     4    14 ar  
     8     4     5 ar  
     9    14    13 ar  
    10    17    16 ar  
    11    17    21 ar  
    12    16    15 ar  
    13     6     5 ar  
    14     6     7 ar  
    15     5    11 ar  
    16    13    15 1   
    17    13    12 ar  
    18    25    21 1   
    19    25    26 1   
    20    15    23 ar  
    21    21    22 ar  
    22     8     7 1   
    23     7     9 ar  
    24    31    26 ar  
    25    31    30 ar  
    26    22    23 ar  
    27    11    12 ar  
    28    11    10 ar  
    29    23    24 1   
    30    26    27 ar  
    31    30    29 ar  
    32     9    10 ar  
    33    27    28 ar  
    34    29    28 ar  
    35     6    32 1   
    36     9    33 1   
    37    10    34 1   
    38    14    35 1   
    39    16    36 1   
    40    18    37 1   
    41    19    38 1   
    42    19    39 1   
    43    19    40 1   
    44    20    41 1   
    45    20    42 1   
    46    20    43 1   
    47    22    44 1   
    48    24    45 1   
    49    24    46 1   
    50    24    47 1   
    51    27    48 1   
    52    28    49 1   
    53    29    50 1   
    54    30    51 1   
    55    31    52 1   
@<TRIPOS>SUBSTRUCTURE
     1 1EA         1 TEMP              0 ****  ****    0 ROOT
