@<TRIPOS>MOLECULE
1EA
   52    55     1     0     0
SMALL
bcc


@<TRIPOS>ATOM
      1 O1          0.1020    1.2970   -0.0370 o         1 1EA     -0.812300
      2 C22         1.1270    0.5620   -0.0480 c         1 1EA      0.908200
      3 O2          1.6420    0.0360    0.9760 o         1 1EA     -0.812300
      4 C3          1.8280    0.2950   -1.3810 ca        1 1EA     -0.067600
      5 C4          1.1390    0.1990   -2.6280 ca        1 1EA     -0.106300
      6 C5         -0.2670    0.3570   -2.7270 ca        1 1EA     -0.104000
      7 C6         -0.8920    0.2400   -3.9560 ca        1 1EA      0.070900
      8 F1         -2.2390    0.3850   -4.0700 f         1 1EA     -0.159900
      9 C7         -0.1370   -0.0340   -5.1360 ca        1 1EA     -0.162000
     10 C8          1.2200   -0.1810   -5.0620 ca        1 1EA     -0.170300
     11 C9          1.9060   -0.0690   -3.8060 ca        1 1EA      0.369600
     12 N1          3.2760   -0.2190   -3.7850 nb        1 1EA     -0.688000
     13 C1          3.8910   -0.1190   -2.6040 cp        1 1EA      0.449800
     14 C2          3.1980    0.1320   -1.3790 ca        1 1EA     -0.235300
     15 C10         5.3640   -0.2400   -2.5390 cp        1 1EA     -0.120500
     16 C15         6.0730    0.7880   -1.9070 ca        1 1EA     -0.099000
     17 C14         7.4680    0.7620   -1.8050 ca        1 1EA     -0.080300
     18 C24         8.2060    1.8690   -1.1210 c3        1 1EA     -0.020400
     19 C26         7.9530    3.1980   -1.8080 c3        1 1EA     -0.088100
     20 C25         7.8200    1.9490    0.3450 c3        1 1EA     -0.088100
     21 C13         8.1390   -0.3440   -2.3500 ca        1 1EA      0.078100
     22 C12         7.4460   -1.3870   -2.9720 ca        1 1EA     -0.163000
     23 C11         6.0520   -1.3440   -3.0720 ca        1 1EA     -0.034300
     24 C23         5.3380   -2.4650   -3.7270 c3        1 1EA     -0.052800
     25 O3          9.5210   -0.4520   -2.1480 os        1 1EA     -0.253200
     26 C16        10.3100   -0.4890   -3.2880 ca        1 1EA      0.129100
     27 C21         9.8530   -0.1880   -4.5760 ca        1 1EA     -0.173500
     28 C20        10.7530   -0.2240   -5.6400 ca        1 1EA     -0.104000
     29 C19        12.0910   -0.5530   -5.4250 ca        1 1EA     -0.171000
     30 C18        12.5370   -0.8510   -4.1360 ca        1 1EA     -0.104000
     31 C17        11.6580   -0.8240   -3.0590 ca        1 1EA     -0.173500
     32 H5         -0.8350    0.5940   -1.8050 ha        1 1EA      0.210000
     33 H7         -0.6690   -0.1190   -6.0930 ha        1 1EA      0.128000
     34 H8          1.8060   -0.3880   -5.9710 ha        1 1EA      0.133000
     35 H2          3.7500    0.1730   -0.4270 ha        1 1EA      0.165000
     36 H15         5.5160    1.6370   -1.4770 ha        1 1EA      0.152000
     37 H3          9.3120    1.6500   -1.1790 hc        1 1EA      0.060700
     38 H262        8.5430    4.0030   -1.3070 hc        1 1EA      0.036033
     39 H261        6.8710    3.4690   -1.7610 hc        1 1EA      0.036033
     40 H263        8.2590    3.1460   -2.8800 hc        1 1EA      0.036033
     41 H252        6.7300    2.1670    0.4550 hc        1 1EA      0.036033
     42 H251        8.3980    2.7620    0.8470 hc        1 1EA      0.036033
     43 H4          8.0410    0.9830    0.8570 hc        1 1EA      0.036033
     44 H12         8.0070   -2.2400   -3.3800 ha        1 1EA      0.139000
     45 H232        5.9910   -3.3690   -3.8000 hc        1 1EA      0.049700
     46 H233        5.0250   -2.1690   -4.7590 hc        1 1EA      0.049700
     47 H231        4.4190   -2.7370   -3.1490 hc        1 1EA      0.049700
     48 H21         8.7960    0.0700   -4.7420 ha        1 1EA      0.151500
     49 H20        10.4000    0.0120   -6.6550 ha        1 1EA      0.128000
     50 H19        12.7940   -0.5790   -6.2690 ha        1 1EA      0.125000
     51 H18        13.5920   -1.1110   -3.9680 ha        1 1EA      0.128000
     52 H17        11.9930   -1.0550   -2.0390 ha        1 1EA      0.151500
@<TRIPOS>BOND
     1    1    2 1   
     2    2    3 1   
     3    2    4 1   
     4    4    5 ar  
     5    4   14 ar  
     6    5    6 ar  
     7    5   11 ar  
     8    6    7 ar  
     9    6   32 1   
    10    7    8 1   
    11    7    9 ar  
    12    9   10 ar  
    13    9   33 1   
    14   10   11 ar  
    15   10   34 1   
    16   11   12 ar  
    17   12   13 ar  
    18   13   14 ar  
    19   13   15 1   
    20   14   35 1   
    21   15   16 ar  
    22   15   23 ar  
    23   16   17 ar  
    24   16   36 1   
    25   17   18 1   
    26   17   21 ar  
    27   18   19 1   
    28   18   20 1   
    29   18   37 1   
    30   19   38 1   
    31   19   39 1   
    32   19   40 1   
    33   20   41 1   
    34   20   42 1   
    35   20   43 1   
    36   21   22 ar  
    37   21   25 1   
    38   22   23 ar  
    39   22   44 1   
    40   23   24 1   
    41   24   45 1   
    42   24   46 1   
    43   24   47 1   
    44   25   26 1   
    45   26   27 ar  
    46   26   31 ar  
    47   27   28 ar  
    48   27   48 1   
    49   28   29 ar  
    50   28   49 1   
    51   29   30 ar  
    52   29   50 1   
    53   30   31 ar  
    54   30   51 1   
    55   31   52 1   
@<TRIPOS>SUBSTRUCTURE
     1 1EA         1 TEMP              0 ****  ****    0 ROOT
