@<TRIPOS>MOLECULE
1EA
   52    55     1     0     0
SMALL
bcc


@<TRIPOS>ATOM
      1 O1          -0.0280    -0.7240    -0.1550 o          1 1EA      -0.812800
      2 C22          1.2120    -0.4970    -0.1460 c          1 1EA       0.909200
      3 O2           1.9200    -0.4210     0.8950 o          1 1EA      -0.812800
      4 C3           1.8770    -0.2810    -1.5070 ca         1 1EA      -0.066600
      5 C4           3.2060    -0.7060    -1.8070 ca         1 1EA      -0.106300
      6 C5           4.0320    -1.3380    -0.8430 ca         1 1EA      -0.104000
      7 C6           5.3080    -1.7480    -1.1860 ca         1 1EA       0.071900
      8 F1           6.1130    -2.3570    -0.2770 f          1 1EA      -0.159900
      9 C7           5.8110    -1.5400    -2.5060 ca         1 1EA      -0.162000
     10 C8           5.0330    -0.9250    -3.4470 ca         1 1EA      -0.170300
     11 C9           3.7040    -0.4830    -3.1310 ca         1 1EA       0.370600
     12 N1           2.9620     0.1370    -4.1120 nb         1 1EA      -0.688000
     13 C1           1.7260     0.5320    -3.7950 cp         1 1EA       0.450800
     14 C2           1.1470     0.3340    -2.5020 ca         1 1EA      -0.236300
     15 C10          0.8790     1.1720    -4.8260 cp         1 1EA      -0.122500
     16 C15         -0.3980     0.6400    -5.0380 ca         1 1EA      -0.099000
     17 C14         -1.2670     1.1750    -5.9950 ca         1 1EA      -0.080300
     18 C24         -2.6290     0.5930    -6.2010 c3         1 1EA      -0.020400
     19 C26         -2.5420    -0.8630    -6.6190 c3         1 1EA      -0.088600
     20 C25         -3.4710     0.7340    -4.9470 c3         1 1EA      -0.088600
     21 C13         -0.8180     2.2820    -6.7340 ca         1 1EA       0.077100
     22 C12          0.4500     2.8350    -6.5250 ca         1 1EA      -0.163000
     23 C11          1.3090     2.2860    -5.5690 ca         1 1EA      -0.035300
     24 C23          2.6430     2.8960    -5.3590 c3         1 1EA      -0.052800
     25 O3          -1.7150     2.9120    -7.6040 os         1 1EA      -0.253200
     26 C16         -1.3580     2.9400    -8.9440 ca         1 1EA       0.129100
     27 C21         -0.3090     2.1970    -9.4990 ca         1 1EA      -0.173500
     28 C20         -0.0690     2.2810   -10.8690 ca         1 1EA      -0.104000
     29 C19         -0.8620     3.0940   -11.6780 ca         1 1EA      -0.171000
     30 C18         -1.9060     3.8310   -11.1160 ca         1 1EA      -0.104000
     31 C17         -2.1640     3.7650    -9.7510 ca         1 1EA      -0.173500
     32 H5           3.6330    -1.4700     0.1830 ha         1 1EA       0.210000
     33 H7           6.8280    -1.8820    -2.7420 ha         1 1EA       0.128000
     34 H8           5.4190    -0.7620    -4.4650 ha         1 1EA       0.133000
     35 H2           0.1140     0.6550    -2.3020 ha         1 1EA       0.164000
     36 H15         -0.7260    -0.2230    -4.4330 ha         1 1EA       0.157000
     37 H3          -3.1390     1.1650    -7.0310 hc         1 1EA       0.059700
     38 H262        -2.0600    -1.4750    -5.8190 hc         1 1EA       0.036700
     39 H261        -1.9410    -0.9650    -7.5540 hc         1 1EA       0.036700
     40 H263        -3.5660    -1.2660    -6.8070 hc         1 1EA       0.036700
     41 H252        -3.5670     1.8100    -4.6630 hc         1 1EA       0.036700
     42 H251        -3.0060     0.1830    -4.0940 hc         1 1EA       0.036700
     43 H4          -4.4920     0.3180    -5.1250 hc         1 1EA       0.036700
     44 H12          0.7620     3.7070    -7.1190 ha         1 1EA       0.138000
     45 H232         2.8790     2.9600    -4.2680 hc         1 1EA       0.049700
     46 H233         2.6870     3.9250    -5.7940 hc         1 1EA       0.049700
     47 H231         3.4310     2.2700    -5.8500 hc         1 1EA       0.049700
     48 H21          0.3160     1.5580    -8.8570 ha         1 1EA       0.151500
     49 H20          0.7530     1.7000   -11.3110 ha         1 1EA       0.128000
     50 H19         -0.6660     3.1550   -12.7570 ha         1 1EA       0.125000
     51 H18         -2.5310     4.4720   -11.7550 ha         1 1EA       0.128000
     52 H17         -2.9820     4.3380    -9.2930 ha         1 1EA       0.151500
@<TRIPOS>BOND
     1     1     2 1   
     2     2     3 1   
     3     2     4 1   
     4     4     5 ar  
     5     4    14 ar  
     6     5     6 ar  
     7     5    11 ar  
     8     6     7 ar  
     9     6    32 1   
    10     7     8 1   
    11     7     9 ar  
    12     9    10 ar  
    13     9    33 1   
    14    10    11 ar  
    15    10    34 1   
    16    11    12 ar  
    17    12    13 ar  
    18    13    14 ar  
    19    13    15 1   
    20    14    35 1   
    21    15    16 ar  
    22    15    23 ar  
    23    16    17 ar  
    24    16    36 1   
    25    17    18 1   
    26    17    21 ar  
    27    18    19 1   
    28    18    20 1   
    29    18    37 1   
    30    19    38 1   
    31    19    39 1   
    32    19    40 1   
    33    20    41 1   
    34    20    42 1   
    35    20    43 1   
    36    21    22 ar  
    37    21    25 1   
    38    22    23 ar  
    39    22    44 1   
    40    23    24 1   
    41    24    45 1   
    42    24    46 1   
    43    24    47 1   
    44    25    26 1   
    45    26    27 ar  
    46    26    31 ar  
    47    27    28 ar  
    48    27    48 1   
    49    28    29 ar  
    50    28    49 1   
    51    29    30 ar  
    52    29    50 1   
    53    30    31 ar  
    54    30    51 1   
    55    31    52 1   
@<TRIPOS>SUBSTRUCTURE
     1 1EA         1 TEMP              0 ****  ****    0 ROOT
