@<TRIPOS>MOLECULE
1EB
   25    26     1     0     0
SMALL
bcc


@<TRIPOS>ATOM
      1 C1           0.0240     0.1780    -0.0130 ca         1 1EB      -0.192000
      2 C2           1.4090     0.0870    -0.0070 ca         1 1EB      -0.036000
      3 C3           2.1000    -0.0480     1.2060 ca         1 1EB      -0.217200
      4 C4           1.3960    -0.0910     2.4210 ca         1 1EB      -0.036000
      5 C5           0.0140     0.0000     2.4160 ca         1 1EB      -0.192000
      6 C6          -0.7060     0.1380     1.1980 ca         1 1EB       0.123600
      7 N7          -2.0980     0.2200     1.2610 ns         1 1EB      -0.470100
      8 C8          -2.9930     0.3990     0.2030 c          1 1EB       0.701100
      9 O9          -2.6190     0.5180    -0.9760 o          1 1EB      -0.574100
     10 C10         -4.4410     0.4420     0.5880 cx         1 1EB      -0.235700
     11 C11         -5.1850     1.7440     0.4080 cx         1 1EB      -0.099900
     12 C12         -5.4570     0.6010    -0.5170 cx         1 1EB      -0.099900
     13 N13          3.5780    -0.1450     1.2100 no         1 1EB       0.319200
     14 O14          4.1690    -0.1060     0.1630 o          1 1EB      -0.214500
     15 O15          4.1530    -0.2610     2.2600 o          1 1EB      -0.214500
     16 H1          -0.4960     0.2840    -0.9810 ha         1 1EB       0.165000
     17 H2           1.9640     0.1210    -0.9620 ha         1 1EB       0.171500
     18 H3           1.9410    -0.1980     3.3750 ha         1 1EB       0.171500
     19 H4          -0.5200    -0.0360     3.3790 ha         1 1EB       0.165000
     20 H5          -2.4910     0.1640     2.1750 hn         1 1EB       0.322500
     21 H6          -4.7050    -0.2020     1.4500 hc         1 1EB       0.095700
     22 H7          -5.9370     2.0240     1.1670 hc         1 1EB       0.086950
     23 H8          -4.6350     2.6230     0.0230 hc         1 1EB       0.086950
     24 H9          -5.0880     0.6560    -1.5600 hc         1 1EB       0.086950
     25 H10         -6.4090     0.0470    -0.4350 hc         1 1EB       0.086950
@<TRIPOS>BOND
     1     1     2 ar  
     2     1     6 ar  
     3     1    16 1   
     4     2     3 ar  
     5     2    17 1   
     6     3     4 ar  
     7     3    13 1   
     8     4     5 ar  
     9     4    18 1   
    10     5     6 ar  
    11     5    19 1   
    12     6     7 1   
    13     7     8 1   
    14     7    20 1   
    15     8     9 2   
    16     8    10 1   
    17    10    11 1   
    18    10    12 1   
    19    10    21 1   
    20    11    12 1   
    21    11    22 1   
    22    11    23 1   
    23    12    24 1   
    24    12    25 1   
    25    13    14 1   
    26    13    15 1   
@<TRIPOS>SUBSTRUCTURE
     1 1EB         1 TEMP              0 ****  ****    0 ROOT
