@<TRIPOS>MOLECULE
molecule
   25    26     1     0     0
SMALL
bcc


@<TRIPOS>ATOM
      1 C1           0.0000     0.0000     0.0000 ca         1 1EB      -0.156500
      2 C2           1.3810     0.0000     0.0000 ca         1 1EB      -0.052500
      3 C3           2.0740     0.0000     1.1970 ca         1 1EB      -0.177200
      4 C4           1.3860     0.0000     2.3970 ca         1 1EB      -0.052500
      5 C5           0.0050    -0.0010     2.4030 ca         1 1EB      -0.156500
      6 C6          -0.6940     0.0050     1.2030 ca         1 1EB       0.099600
      7 N7          -2.0930     0.0050     1.2060 ns         1 1EB      -0.477100
      8 C8          -2.7690     0.6790     0.2550 c          1 1EB       0.698100
      9 O9          -2.1670     1.2170    -0.6510 o          1 1EB      -0.588100
     10 C10         -4.2720     0.7670     0.3180 cx         1 1EB      -0.243700
     11 C11         -4.9810     1.5470    -0.7910 cx         1 1EB      -0.104400
     12 C12         -5.0690     0.0200    -0.7540 cx         1 1EB      -0.104400
     13 N13          3.5540     0.0000     1.1940 no         1 1EB       0.296200
     14 O14          4.1600    -0.0010     0.1380 o          1 1EB      -0.209000
     15 O15          4.1650    -0.0000     2.2480 o          1 1EB      -0.209000
     16 H1          -0.5420     0.0020    -0.9380 ha         1 1EB       0.163500
     17 H2           1.9220    -0.0020    -0.9390 ha         1 1EB       0.168500
     18 H3           1.9310    -0.0020     3.3330 ha         1 1EB       0.168500
     19 H4          -0.5330     0.0020     3.3430 ha         1 1EB       0.163500
     20 H5          -2.5910    -0.5120     1.9020 hn         1 1EB       0.333500
     21 H6          -4.7530     0.8180     1.2870 hc         1 1EB       0.092700
     22 H7          -5.8790     2.0740    -0.4910 hc         1 1EB       0.087200
     23 H8          -4.3370     1.9600    -1.5580 hc         1 1EB       0.087200
     24 H9          -6.0200    -0.3870    -0.4320 hc         1 1EB       0.087200
     25 H10         -4.4770    -0.5010    -1.4980 hc         1 1EB       0.087200
@<TRIPOS>BOND
     1    15    13 1   
     2    13    14 1   
     3    13     3 1   
     4     4     3 ar  
     5     4     5 ar  
     6     3     2 ar  
     7     5     6 ar  
     8     2     1 ar  
     9     6     1 ar  
    10     6     7 1   
    11     7     8 1   
    12     8     9 2   
    13     8    10 1   
    14    10    11 1   
    15    10    12 1   
    16    11    12 1   
    17     1    16 1   
    18     2    17 1   
    19     4    18 1   
    20     5    19 1   
    21     7    20 1   
    22    10    21 1   
    23    11    22 1   
    24    11    23 1   
    25    12    24 1   
    26    12    25 1   
@<TRIPOS>SUBSTRUCTURE
     1 1EB         1 TEMP              0 ****  ****    0 ROOT
