@<TRIPOS>MOLECULE
1ED
   41    43     1     0     0
SMALL
bcc


@<TRIPOS>ATOM
      1 OB           0.0000     0.0000     0.0000 o          1 1ED      -0.676500
      2 CB           1.2130     0.0000     0.0000 c          1 1ED       0.603500
      3 CAB          1.9320     0.0000     1.3160 c3         1 1ED      -0.048300
      4 CBB          1.9340     1.4200     1.8850 c3         1 1ED       0.020900
      5 CGB          2.5060     1.4020     3.2790 ca         1 1ED      -0.127300
      6 CD4          3.8650     1.5690     3.4710 ca         1 1ED      -0.076500
      7 CE4          4.3910     1.5510     4.7480 ca         1 1ED      -0.134000
      8 CZB          3.5530     1.3650     5.8390 ca         1 1ED       0.128100
      9 OHB          4.0680     1.3480     7.0970 oh         1 1ED      -0.499100
     10 CE3          2.1900     1.1980     5.6440 ca         1 1ED      -0.134000
     11 CD3          1.6690     1.2210     4.3650 ca         1 1ED      -0.076500
     12 NB           3.3070    -0.4580     1.1680 ns         1 1ED      -0.175900
     13 CA           3.9460    -0.4620    -0.0070 c          1 1ED       0.602500
     14 OA           5.0920    -0.8590    -0.0420 o          1 1ED      -0.676500
     15 NA           1.8540    -0.0040    -1.1730 ns         1 1ED      -0.175900
     16 CAA          3.3070     0.0020    -1.2800 c3         1 1ED      -0.047300
     17 CBA          3.7850     1.4210    -1.5930 c3         1 1ED       0.018900
     18 CGA          3.2430     1.8500    -2.9330 ca         1 1ED      -0.110300
     19 CD1          2.0220     2.4910    -3.0120 ca         1 1ED      -0.097500
     20 CE1          1.5260     2.8840    -4.2410 ca         1 1ED      -0.095000
     21 CZA          2.2510     2.6350    -5.3910 ca         1 1ED      -0.097000
     22 CE2          3.4730     1.9920    -5.3120 ca         1 1ED      -0.095000
     23 CD2          3.9720     1.6060    -4.0820 ca         1 1ED      -0.097500
     24 H1           1.4130    -0.6600     2.0000 h1         1 1ED       0.064700
     25 H2           0.9200     1.7990     1.9150 hc         1 1ED       0.036200
     26 H3           2.5400     2.0610     1.2550 hc         1 1ED       0.036200
     27 H4           4.5170     1.7140     2.6190 ha         1 1ED       0.111000
     28 H5           5.4560     1.6820     4.8970 ha         1 1ED       0.117500
     29 H6           4.3040     0.4650     7.3280 ho         1 1ED       0.404000
     30 H7           1.5350     1.0550     6.4940 ha         1 1ED       0.117500
     31 H8           0.6040     1.0910     4.2120 ha         1 1ED       0.111000
     32 H9           3.7930    -0.7830     1.9790 hn         1 1ED       0.197500
     33 H10          1.3120    -0.0130    -2.0150 hn         1 1ED       0.199500
     34 H11          3.6030    -0.6620    -2.0840 h1         1 1ED       0.065700
     35 H12          3.4300     2.0990    -0.8270 hc         1 1ED       0.035200
     36 H13          4.8680     1.4390    -1.6190 hc         1 1ED       0.035200
     37 H14          1.4540     2.6870    -2.1110 ha         1 1ED       0.110000
     38 H15          0.5690     3.3870    -4.3030 ha         1 1ED       0.105500
     39 H16          1.8610     2.9410    -6.3540 ha         1 1ED       0.105000
     40 H17          4.0420     1.7990    -6.2130 ha         1 1ED       0.105500
     41 H18          4.9290     1.1020    -4.0210 ha         1 1ED       0.110000
@<TRIPOS>BOND
     1     1     2 2   
     2     2     3 1   
     3     2    15 1   
     4     3     4 1   
     5     3    12 1   
     6     3    24 1   
     7     4     5 1   
     8     4    25 1   
     9     4    26 1   
    10     5     6 ar  
    11     5    11 ar  
    12     6     7 ar  
    13     6    27 1   
    14     7     8 ar  
    15     7    28 1   
    16     8     9 1   
    17     8    10 ar  
    18     9    29 1   
    19    10    11 ar  
    20    10    30 1   
    21    11    31 1   
    22    12    13 1   
    23    12    32 1   
    24    13    14 2   
    25    13    16 1   
    26    15    16 1   
    27    15    33 1   
    28    16    17 1   
    29    16    34 1   
    30    17    18 1   
    31    17    35 1   
    32    17    36 1   
    33    18    19 ar  
    34    18    23 ar  
    35    19    20 ar  
    36    19    37 1   
    37    20    21 ar  
    38    20    38 1   
    39    21    22 ar  
    40    21    39 1   
    41    22    23 ar  
    42    22    40 1   
    43    23    41 1   
@<TRIPOS>SUBSTRUCTURE
     1 1ED         1 TEMP              0 ****  ****    0 ROOT
