@<TRIPOS>MOLECULE
1ED
   41    43     1     0     0
SMALL
bcc


@<TRIPOS>ATOM
      1 OB           0.0040     0.5340     0.1800 o          1 1ED      -0.635500
      2 CB           1.2100     0.2240     0.1280 c          1 1ED       0.695500
      3 CAB          1.9900    -0.0420     1.4250 c3         1 1ED       0.039700
      4 CBB          2.0200     1.2780     2.2260 c3         1 1ED      -0.060100
      5 CGB          2.5120     1.0560     3.6100 ca         1 1ED      -0.130300
      6 CD4          3.8780     1.1670     3.9050 ca         1 1ED      -0.091000
      7 CE4          4.3470     0.9690     5.1970 ca         1 1ED      -0.182500
      8 CZB          3.4310     0.6540     6.2150 ca         1 1ED       0.128100
      9 OHB          3.9520     0.4680     7.4740 oh         1 1ED      -0.495100
     10 CE3          2.0610     0.5420     5.9370 ca         1 1ED      -0.182500
     11 CD3          1.6120     0.7450     4.6360 ca         1 1ED      -0.091000
     12 NB           3.2890    -0.6330     1.2310 ns         1 1ED      -0.546900
     13 CA           3.9860    -0.5330     0.0470 c          1 1ED       0.687500
     14 OA           5.1960    -0.8310     0.0020 o          1 1ED      -0.639500
     15 NA           1.8330     0.0710    -1.0890 ns         1 1ED      -0.556900
     16 CAA          3.2480    -0.1410    -1.2440 c3         1 1ED       0.045700
     17 CBA          3.9970     1.0340    -1.9070 c3         1 1ED      -0.057100
     18 CGA          3.8180     2.3390    -1.2190 ca         1 1ED      -0.094300
     19 CD1          2.9040     3.2800    -1.7080 ca         1 1ED      -0.127000
     20 CE1          2.7570     4.5130    -1.0730 ca         1 1ED      -0.128500
     21 CZA          3.5220     4.8160     0.0530 ca         1 1ED      -0.125000
     22 CE2          4.4350     3.8830     0.5440 ca         1 1ED      -0.128500
     23 CD2          4.5850     2.6510    -0.0890 ca         1 1ED      -0.127000
     24 H1           1.3700    -0.7890     2.0140 h1         1 1ED       0.092700
     25 H2           2.6710     2.0290     1.6980 hc         1 1ED       0.077200
     26 H3           0.9730     1.6850     2.2440 hc         1 1ED       0.077200
     27 H4           4.5890     1.4230     3.1030 ha         1 1ED       0.138500
     28 H5           5.4170     1.0540     5.4370 ha         1 1ED       0.145500
     29 H6           3.2200     0.2630     8.0740 ho         1 1ED       0.421000
     30 H7           1.3500     0.2980     6.7390 ha         1 1ED       0.145500
     31 H8           0.5370     0.6610     4.4120 ha         1 1ED       0.138500
     32 H9           3.8110    -0.8060     2.0640 hn         1 1ED       0.329500
     33 H10          1.3360     0.3470    -1.9070 hn         1 1ED       0.326500
     34 H11          3.3740    -1.0360    -1.9360 h1         1 1ED       0.084700
     35 H12          5.0890     0.7590    -1.9240 hc         1 1ED       0.073200
     36 H13          3.6500     1.1160    -2.9720 hc         1 1ED       0.073200
     37 H14          2.3000     3.0470    -2.5970 ha         1 1ED       0.136500
     38 H15          2.0370     5.2460    -1.4640 ha         1 1ED       0.135000
     39 H16          3.4060     5.7890     0.5520 ha         1 1ED       0.135000
     40 H17          5.0420     4.1210     1.4300 ha         1 1ED       0.135000
     41 H18          5.3110     1.9140     0.2920 ha         1 1ED       0.136500
@<TRIPOS>BOND
     1     1     2 2   
     2     2     3 1   
     3     2    15 1   
     4     3     4 1   
     5     3    12 1   
     6     3    24 1   
     7     4     5 1   
     8     4    25 1   
     9     4    26 1   
    10     5     6 ar  
    11     5    11 ar  
    12     6     7 ar  
    13     6    27 1   
    14     7     8 ar  
    15     7    28 1   
    16     8     9 1   
    17     8    10 ar  
    18     9    29 1   
    19    10    11 ar  
    20    10    30 1   
    21    11    31 1   
    22    12    13 1   
    23    12    32 1   
    24    13    14 2   
    25    13    16 1   
    26    15    16 1   
    27    15    33 1   
    28    16    17 1   
    29    16    34 1   
    30    17    18 1   
    31    17    35 1   
    32    17    36 1   
    33    18    19 ar  
    34    18    23 ar  
    35    19    20 ar  
    36    19    37 1   
    37    20    21 ar  
    38    20    38 1   
    39    21    22 ar  
    40    21    39 1   
    41    22    23 ar  
    42    22    40 1   
    43    23    41 1   
@<TRIPOS>SUBSTRUCTURE
     1 1ED         1 TEMP              0 ****  ****    0 ROOT
