@<TRIPOS>MOLECULE
molecule
   58    61     1     0     0
SMALL
bcc


@<TRIPOS>ATOM
      1 CAU          0.0000     0.0000     0.0000 ca         1 1EF      -0.099000
      2 CAV          1.4050     0.0000     0.0000 ca         1 1EF      -0.030000
      3 CAZ          2.1350     0.0000     1.2010 ca         1 1EF      -0.110000
      4 CBA          3.4960    -0.0010     1.1610 ca         1 1EF      -0.126000
      5 CBB          4.1790    -0.0000    -0.0530 ca         1 1EF      -0.124000
      6 CBC          3.5060     0.0000    -1.2360 ca         1 1EF      -0.117000
      7 CAW          2.1010     0.0000    -1.2360 ca         1 1EF      -0.030000
      8 CAX          1.3700     0.0000    -2.4360 ca         1 1EF      -0.113000
      9 CAY          0.0100    -0.0000    -2.3970 ca         1 1EF      -0.115000
     10 CAT         -0.6740    -0.0070    -1.1840 ca         1 1EF      -0.093300
     11 CAR         -2.1800    -0.0070    -1.1780 c3         1 1EF      -0.054100
     12 CAQ         -2.6900    -1.4420    -1.3160 c3         1 1EF       0.085000
     13 CAS         -4.2150    -1.4320    -1.4440 c3         1 1EF      -0.170400
     14 CBD         -4.6060    -0.7940    -2.7520 c          1 1EF       0.675100
     15 NBF         -5.9020    -0.7450    -3.1190 ns         1 1EF      -0.467400
     16 OBG         -6.2680    -0.1460    -4.3470 oh         1 1EF      -0.355100
     17 OBE         -3.7530    -0.3250    -3.4770 o          1 1EF      -0.574100
     18 NAB         -2.3050    -2.2130    -0.1320 na         1 1EF       0.130400
     19 CAC         -2.9880    -2.2680     1.0350 cc         1 1EF      -0.291600
     20 NAA         -1.2610    -2.9590    -0.0240 nc         1 1EF      -0.177800
     21 NAE         -1.2180    -3.4950     1.1450 nd         1 1EF      -0.354000
     22 CAD         -2.2820    -3.0890     1.8470 cd         1 1EF       0.247600
     23 CAF         -2.6280    -3.4750     3.2620 c3         1 1EF       0.106700
     24 NAG         -3.3570    -4.7460     3.2580 ns         1 1EF      -0.582900
     25 CAH         -3.7710    -5.2890     4.4200 c          1 1EF       0.674700
     26 OAJ         -3.5410    -4.7240     5.4710 o          1 1EF      -0.612100
     27 CAI         -4.5060    -6.5710     4.4150 ca         1 1EF      -0.153600
     28 CAK         -4.7680    -7.2250     3.2100 ca         1 1EF      -0.081500
     29 CAL         -5.4540    -8.4220     3.2140 ca         1 1EF      -0.140000
     30 CAM         -5.8840    -8.9740     4.4080 ca         1 1EF      -0.058300
     31 CAP         -6.6320   -10.2810     4.4040 c3         1 1EF      -0.052800
     32 CAN         -5.6270    -8.3310     5.6060 ca         1 1EF      -0.140000
     33 CAO         -4.9370    -7.1370     5.6170 ca         1 1EF      -0.081500
     34 H1          -0.5450    -0.0050     0.9360 ha         1 1EF       0.130000
     35 H2           1.6180    -0.0000     2.1530 ha         1 1EF       0.133000
     36 H3           4.0570    -0.0010     2.0880 ha         1 1EF       0.128000
     37 H4           5.2620    -0.0010    -0.0550 ha         1 1EF       0.127000
     38 H5           4.0510     0.0010    -2.1720 ha         1 1EF       0.132000
     39 H6           1.8870     0.0050    -3.3880 ha         1 1EF       0.134000
     40 H7          -0.5500    -0.0060    -3.3250 ha         1 1EF       0.139000
     41 H8          -2.5440     0.5870    -2.0080 hc         1 1EF       0.075200
     42 H9          -2.5390     0.4150    -0.2470 hc         1 1EF       0.075200
     43 H10         -2.2570    -1.8960    -2.1990 h1         1 1EF       0.115700
     44 H11         -4.6420    -0.8660    -0.6250 hc         1 1EF       0.074200
     45 H12         -4.5870    -2.4490    -1.4130 hc         1 1EF       0.074200
     46 H13         -6.6050    -1.1330    -2.5220 hn         1 1EF       0.322500
     47 H14         -7.2010    -0.2150    -4.4650 ho         1 1EF       0.404000
     48 H15         -3.9120    -1.7550     1.2740 h4         1 1EF       0.179000
     49 H16         -1.7180    -3.5820     3.8400 h1         1 1EF       0.067200
     50 H17         -3.2480    -2.7050     3.7040 h1         1 1EF       0.067200
     51 H18         -3.5160    -5.2290     2.3960 hn         1 1EF       0.320500
     52 H19         -4.4320    -6.7950     2.2750 ha         1 1EF       0.141000
     53 H20         -5.6570    -8.9310     2.2790 ha         1 1EF       0.135000
     54 H21         -6.2270   -10.9320     5.1690 hc         1 1EF       0.046033
     55 H22         -7.6810   -10.0980     4.6030 hc         1 1EF       0.046033
     56 H23         -6.5270   -10.7550     3.4350 hc         1 1EF       0.046033
     57 H24         -5.9630    -8.7700     6.5370 ha         1 1EF       0.135000
     58 H25         -4.7360    -6.6350     6.5560 ha         1 1EF       0.141000
@<TRIPOS>BOND
     1     6     5 ar  
     2     6     7 ar  
     3     8     7 ar  
     4     8     9 ar  
     5     5     4 ar  
     6     7     2 ar  
     7     9    10 ar  
     8     4     3 ar  
     9     2     3 ar  
    10     2     1 ar  
    11    10     1 ar  
    12    10    11 1   
    13    29    28 ar  
    14    29    30 ar  
    15    13    12 1   
    16    13    14 1   
    17    31    30 1   
    18    28    27 ar  
    19    12    11 1   
    20    12    18 1   
    21    17    14 2   
    22    14    15 1   
    23    30    32 ar  
    24    18    19 1   
    25    18    20 1   
    26    26    25 2   
    27    15    16 1   
    28    27    25 1   
    29    27    33 ar  
    30    19    22 2   
    31    32    33 ar  
    32    25    24 1   
    33    20    21 2   
    34    22    21 1   
    35    22    23 1   
    36    24    23 1   
    37     1    34 1   
    38     3    35 1   
    39     4    36 1   
    40     5    37 1   
    41     6    38 1   
    42     8    39 1   
    43     9    40 1   
    44    11    41 1   
    45    11    42 1   
    46    12    43 1   
    47    13    44 1   
    48    13    45 1   
    49    15    46 1   
    50    16    47 1   
    51    19    48 1   
    52    23    49 1   
    53    23    50 1   
    54    24    51 1   
    55    28    52 1   
    56    29    53 1   
    57    31    54 1   
    58    31    55 1   
    59    31    56 1   
    60    32    57 1   
    61    33    58 1   
@<TRIPOS>SUBSTRUCTURE
     1 1EF         1 TEMP              0 ****  ****    0 ROOT
