@<TRIPOS>MOLECULE
1EF
   60    63     1     0     0
SMALL
bcc


@<TRIPOS>ATOM
      1 CAU          0.0730     0.2760    -1.0580 ca         1 1EF      -0.086000
      2 CAV          1.4330    -0.0120    -1.3530 ca         1 1EF      -0.044000
      3 CAZ          2.3710    -0.3030    -0.3260 ca         1 1EF      -0.123000
      4 CBA          3.6860    -0.5560    -0.6380 ca         1 1EF      -0.104000
      5 CBB          4.1210    -0.5330    -1.9850 ca         1 1EF      -0.101000
      6 CBC          3.2330    -0.2560    -2.9980 ca         1 1EF      -0.117000
      7 CAW          1.8700     0.0140    -2.7030 ca         1 1EF      -0.034000
      8 CAX          0.9340     0.3350    -3.7250 ca         1 1EF      -0.088000
      9 CAY         -0.3730     0.6120    -3.4160 ca         1 1EF      -0.165000
     10 CAT         -0.8190     0.5780    -2.0650 ca         1 1EF      -0.146300
     11 CAR         -2.2190     0.9600    -1.7470 c3         1 1EF      -0.050100
     12 CAQ         -3.2530     0.0720    -2.4620 c3         1 1EF       0.067000
     13 CAS         -4.6680     0.6650    -2.3180 c3         1 1EF      -0.158400
     14 CBD         -5.1860     0.5730    -0.9170 c          1 1EF       0.563100
     15 NBF         -6.5780    -0.0690    -0.7660 ny         1 1EF      -0.463300
     16 OBG         -7.2020     0.2430     0.3920 oh         1 1EF      -0.348300
     17 OBE         -4.6820     0.9250     0.1320 o          1 1EF      -0.388100
     18 NAB         -3.1930    -1.3360    -2.0580 na         1 1EF       0.056400
     19 CAC         -2.1540    -2.2150    -2.3650 cc         1 1EF      -0.091600
     20 NAA         -4.1320    -1.9780    -1.3150 nc         1 1EF      -0.255800
     21 NAE         -3.8000    -3.1910    -1.1420 nd         1 1EF      -0.326000
     22 CAD         -2.5580    -3.4350    -1.7740 cd         1 1EF       0.168600
     23 CAF         -1.9000    -4.7540    -1.8690 c3         1 1EF       0.119500
     24 NAG         -1.8240    -5.4890    -0.5690 ny         1 1EF      -0.680800
     25 CAH         -0.5610    -5.2160     0.2520 c          1 1EF       0.577700
     26 OAJ          0.1520    -4.3150    -0.1670 o          1 1EF      -0.439100
     27 CAI         -0.3560    -6.0820     1.4030 ca         1 1EF      -0.234600
     28 CAK          0.9190    -6.0360     2.0030 ca         1 1EF      -0.054000
     29 CAL          1.2020    -6.8350     3.1040 ca         1 1EF      -0.135500
     30 CAM          0.2270    -7.6900     3.6350 ca         1 1EF       0.035700
     31 CAP          0.5320    -8.5540     4.7950 c3         1 1EF      -0.089800
     32 CAN         -1.0480    -7.7240     3.0400 ca         1 1EF      -0.135500
     33 CAO         -1.3400    -6.9330     1.9400 ca         1 1EF      -0.054000
     34 H1          -0.2440     0.2740    -0.0030 ha         1 1EF       0.137000
     35 H2           2.0300    -0.3070     0.7200 ha         1 1EF       0.139000
     36 H3           4.4190    -0.7680     0.1560 ha         1 1EF       0.151000
     37 H4           5.1810    -0.7320    -2.2090 ha         1 1EF       0.156000
     38 H5           3.5660    -0.2270    -4.0480 ha         1 1EF       0.151000
     39 H6           1.2860     0.3780    -4.7690 ha         1 1EF       0.154000
     40 H7          -1.0780     0.9020    -4.2090 ha         1 1EF       0.127000
     41 H8          -2.3940     0.9410    -0.6370 hc         1 1EF       0.083700
     42 H9          -2.3900     2.0160    -2.0990 hc         1 1EF       0.083700
     43 H10         -3.0140     0.0840    -3.5740 h1         1 1EF       0.118700
     44 H11         -4.6080     1.7650    -2.5790 hc         1 1EF       0.128700
     45 H12         -5.3560     0.1760    -3.0600 hc         1 1EF       0.128700
     46 H13         -7.2120     0.2750    -1.5170 hn         1 1EF       0.491800
     47 H14         -6.5350     0.3030     1.1200 ho         1 1EF       0.488000
     48 H15         -1.2610    -1.9140    -2.9270 h4         1 1EF       0.243000
     49 H16         -0.8480    -4.6180    -2.2630 hx         1 1EF       0.124700
     50 H17         -2.4790    -5.4110    -2.5870 hx         1 1EF       0.124700
     51 H18         -1.8500    -6.4980    -0.7620 hn         1 1EF       0.465800
     52 H19          1.6930    -5.3640     1.5920 ha         1 1EF       0.145000
     53 H20          2.2050    -6.7950     3.5640 ha         1 1EF       0.172500
     54 H21          1.3220    -8.0980     5.4420 hc         1 1EF       0.079033
     55 H22          0.9070    -9.5480     4.4350 hc         1 1EF       0.079033
     56 H23         -0.3810    -8.7320     5.4180 hc         1 1EF       0.079033
     57 H24         -1.8230    -8.3880     3.4600 ha         1 1EF       0.172500
     58 H25         -2.3560    -6.9850     1.5210 ha         1 1EF       0.145000
     59 HBF2        -6.4980    -1.1030    -0.8440 hn         1 1EF       0.491800
     60 HAG2        -2.6350    -5.2570     0.0170 hn         1 1EF       0.465800
@<TRIPOS>BOND
     1     1     2 ar  
     2     1    10 ar  
     3     1    34 1   
     4     2     3 ar  
     5     2     7 ar  
     6     3     4 ar  
     7     3    35 1   
     8     4     5 ar  
     9     4    36 1   
    10     5     6 ar  
    11     5    37 1   
    12     6     7 ar  
    13     6    38 1   
    14     7     8 ar  
    15     8     9 ar  
    16     8    39 1   
    17     9    10 ar  
    18     9    40 1   
    19    10    11 1   
    20    11    12 1   
    21    11    41 1   
    22    11    42 1   
    23    12    13 1   
    24    12    18 1   
    25    12    43 1   
    26    13    14 1   
    27    13    44 1   
    28    13    45 1   
    29    14    15 1   
    30    14    17 2   
    31    15    16 1   
    32    15    46 1   
    33    15    59 1   
    34    16    47 1   
    35    18    19 1   
    36    18    20 1   
    37    19    22 2   
    38    19    48 1   
    39    20    21 2   
    40    21    22 1   
    41    22    23 1   
    42    23    24 1   
    43    23    49 1   
    44    23    50 1   
    45    24    25 1   
    46    24    51 1   
    47    24    60 1   
    48    25    26 2   
    49    25    27 1   
    50    27    28 ar  
    51    27    33 ar  
    52    28    29 ar  
    53    28    52 1   
    54    29    30 ar  
    55    29    53 1   
    56    30    31 1   
    57    30    32 ar  
    58    31    54 1   
    59    31    55 1   
    60    31    56 1   
    61    32    33 ar  
    62    32    57 1   
    63    33    58 1   
@<TRIPOS>SUBSTRUCTURE
     1 1EF         1 TEMP              0 ****  ****    0 ROOT
