@<TRIPOS>MOLECULE
1EG
   56    58     1     0     0
SMALL
bcc


@<TRIPOS>ATOM
      1 O6           0.4900     0.0260     1.7060 o          1 1EG      -0.377100
      2 C6           1.5820     0.2770     1.2150 c          1 1EG       0.646000
      3 N1           2.2900     1.4680     1.6580 nc         1 1EG      -0.614100
      4 C2           3.4110     1.8300     1.1110 cd         1 1EG       0.701100
      5 N2           4.0530     3.0670     1.6880 nz         1 1EG      -0.810600
      6 N3           4.1890     1.1550     0.1180 na         1 1EG      -0.667600
      7 C5           2.3040    -0.4890     0.1990 cc         1 1EG       0.234800
      8 C4           3.5480    -0.0130    -0.3280 cd         1 1EG       0.016000
      9 N7           1.9640    -1.6980    -0.4050 nc         1 1EG      -0.537000
     10 C8           2.9590    -1.9560    -1.2720 cd         1 1EG       0.421400
     11 N9           3.9840    -0.9720    -1.2550 na         1 1EG      -0.220900
     12 C1'          5.1410    -0.8590    -2.1100 c3         1 1EG       0.216800
     13 O4'          4.8460     0.0020    -3.2240 os         1 1EG      -0.407600
     14 C2'          5.6560    -2.2200    -2.6870 c3         1 1EG       0.098100
     15 O2'          7.0660    -2.1830    -2.6440 oh         1 1EG      -0.587800
     16 C3'          5.2180    -2.1900    -4.1690 c3         1 1EG       0.112100
     17 O3'          6.1790    -2.6880    -5.0680 oh         1 1EG      -0.631800
     18 C4'          4.9060    -0.7090    -4.4650 c3         1 1EG       0.055100
     19 C5'          3.5750    -0.5240    -5.1990 c3         1 1EG       0.184400
     20 O5'          3.4990    -1.4050    -6.3080 os         1 1EG      -0.580500
     21 SBG          4.2740    -1.1870    -7.7460 s6         1 1EG       1.633400
     22 OAF          5.2940    -0.3210    -7.4900 o          1 1EG      -0.552300
     23 OAG          3.3150    -1.1590    -8.7090 o          1 1EG      -0.552300
     24 NAQ          5.0060    -2.8680    -7.8270 ny         1 1EG      -0.634700
     25 C            5.6400    -3.2310    -9.1430 c          1 1EG       0.551100
     26 O            5.8300    -2.2810    -9.8890 o          1 1EG      -0.443100
     27 CA           5.9770    -4.7100    -9.4390 c3         1 1EG       0.146500
     28 N            5.9790    -5.4890    -8.2380 n8         1 1EG      -0.979800
     29 CB           4.9960    -5.1380   -10.5490 c3         1 1EG      -0.103400
     30 CG           5.3560    -6.4800   -11.1480 c3         1 1EG      -0.142400
     31 CD           4.7070    -7.6200   -10.4240 c          1 1EG       0.641100
     32 OE1          4.6280    -8.7570   -11.1490 oh         1 1EG      -0.569100
     33 OE2          4.2540    -7.6340    -9.2710 o          1 1EG      -0.588000
     34 H1           4.1590     3.7820     0.9620 hn         1 1EG       0.488133
     35 H2           3.4500     3.4410     2.4430 hn         1 1EG       0.488133
     36 H3           4.6860     1.6920    -0.5640 hn         1 1EG       0.456800
     37 H4           3.0130    -2.8410    -1.9200 h5         1 1EG       0.084100
     38 H5           5.9680    -0.3360    -1.5380 h2         1 1EG       0.121700
     39 H6           5.2420    -3.1100    -2.1500 h1         1 1EG       0.096700
     40 H7           7.3690    -2.8740    -2.0380 ho         1 1EG       0.449000
     41 H8           4.3090    -2.8360    -4.3250 h1         1 1EG       0.102700
     42 H9           7.0630    -2.4240    -4.7630 ho         1 1EG       0.460000
     43 H10          5.7430    -0.2340    -5.0560 h1         1 1EG       0.111700
     44 H11          2.6980    -0.8160    -4.5570 h1         1 1EG       0.096200
     45 H12          3.4630     0.5380    -5.5440 h1         1 1EG       0.096200
     46 H15          5.7340    -2.9910    -7.1050 hn         1 1EG       0.494300
     47 H16          7.0210    -4.6530    -9.8880 h1         1 1EG       0.116700
     48 H17          4.1960    -9.4600   -10.6290 ho         1 1EG       0.470000
     49 H18          6.8530    -5.9450    -8.0770 hn         1 1EG       0.418300
     50 H20          5.0300    -4.3620   -11.3610 hc         1 1EG       0.086200
     51 H21          3.9500    -5.1740   -10.1430 hc         1 1EG       0.086200
     52 H22          6.4660    -6.6500   -11.1490 hc         1 1EG       0.109200
     53 H23          5.0200    -6.5110   -12.2230 hc         1 1EG       0.109200
     54 H231         4.9710     2.8260     2.0840 hn         1 1EG       0.488133
     55 HN3          5.2150    -6.1370    -8.1800 hn         1 1EG       0.418300
     56 HAQ2         4.2980    -3.5810    -7.6220 hn         1 1EG       0.494300
@<TRIPOS>BOND
     1     1     2 2   
     2     2     3 1   
     3     2     7 1   
     4     3     4 2   
     5     4     5 1   
     6     4     6 1   
     7     5    34 1   
     8     5    35 1   
     9     5    54 1   
    10     6     8 1   
    11     6    36 1   
    12     7     8 2   
    13     7     9 1   
    14     8    11 1   
    15     9    10 2   
    16    10    11 1   
    17    10    37 1   
    18    11    12 1   
    19    12    13 1   
    20    12    14 1   
    21    12    38 1   
    22    13    18 1   
    23    14    15 1   
    24    14    16 1   
    25    14    39 1   
    26    15    40 1   
    27    16    17 1   
    28    16    18 1   
    29    16    41 1   
    30    17    42 1   
    31    18    19 1   
    32    18    43 1   
    33    19    20 1   
    34    19    44 1   
    35    19    45 1   
    36    20    21 1   
    37    21    22 2   
    38    21    23 2   
    39    21    24 1   
    40    24    25 1   
    41    24    46 1   
    42    24    56 1   
    43    25    26 2   
    44    25    27 1   
    45    27    28 1   
    46    27    29 1   
    47    27    47 1   
    48    28    49 1   
    49    28    55 1   
    50    29    30 1   
    51    29    50 1   
    52    29    51 1   
    53    30    31 1   
    54    30    52 1   
    55    30    53 1   
    56    31    32 1   
    57    31    33 2   
    58    32    48 1   
@<TRIPOS>SUBSTRUCTURE
     1 1EG         1 TEMP              0 ****  ****    0 ROOT
