@<TRIPOS>MOLECULE
1EG
   55    57     1     0     0
SMALL
bcc


@<TRIPOS>ATOM
      1 O6           0.0000     0.0000     0.0000 o          1 1EG      -0.455100
      2 C6           1.2210     0.0000     0.0000 c          1 1EG       0.605000
      3 N1           1.9060     0.0000     1.1540 nc         1 1EG      -0.501100
      4 C2           3.2220     0.0010     1.1690 cd         1 1EG       0.220100
      5 N2           3.8660     0.0000     2.3770 nz         1 1EG       0.190400
      6 N3           3.9660     0.0020     0.0320 na         1 1EG      -0.106600
      7 C5           1.9700    -0.0050    -1.2600 cc         1 1EG       0.244800
      8 C4           3.3580     0.0020    -1.1970 cd         1 1EG      -0.364000
      9 N7           1.6250    -0.0100    -2.5680 nc         1 1EG      -0.502000
     10 C8           2.7060    -0.0120    -3.2950 cd         1 1EG       0.273400
     11 N9           3.8020     0.0030    -2.4850 na         1 1EG       0.319100
     12 C1'          5.2010     0.0040    -2.9180 c3         1 1EG       0.130800
     13 O4'          5.3070     0.4460    -4.2880 os         1 1EG      -0.383600
     14 C2'          5.7600    -1.4400    -2.9590 c3         1 1EG       0.128100
     15 O2'          6.2610    -1.8300    -1.6790 oh         1 1EG      -0.580800
     16 C3'          6.9110    -1.3140    -3.9870 c3         1 1EG       0.138100
     17 O3'          8.1640    -1.1530    -3.3180 oh         1 1EG      -0.551800
     18 C4'          6.5600    -0.0460    -4.7920 c3         1 1EG       0.151100
     19 C5'          6.4240    -0.3940    -6.2760 c3         1 1EG       0.251400
     20 O5'          6.1980     0.8010    -7.0260 os         1 1EG      -0.447500
     21 SBG          6.0470     0.5730    -8.5240 s6         1 1EG       1.365100
     22 OAF          6.0320     1.8600    -9.1260 o          1 1EG      -0.547300
     23 OAG          6.9830    -0.4380    -8.8710 o          1 1EG      -0.547300
     24 NAQ          4.5430    -0.0760    -8.7700 ns         1 1EG      -0.318300
     25 C            3.4420     0.6490    -8.4940 c          1 1EG       0.648100
     26 O            3.5520     1.7780    -8.0630 o          1 1EG      -0.598100
     27 CA           2.0740     0.0590    -8.7190 c3         1 1EG      -0.171500
     28 N            1.0840     0.8030    -7.9280 nz         1 1EG       0.084400
     29 CB           1.7160     0.1530   -10.2030 c3         1 1EG      -0.020400
     30 CG           0.3840    -0.5570   -10.4520 c3         1 1EG      -0.152400
     31 CD           0.0310    -0.4650   -11.9150 c          1 1EG       0.970600
     32 OE1          0.7700     0.1110   -12.6800 o          1 1EG      -0.850300
     33 OE2         -1.1030    -1.0210   -12.3690 o          1 1EG      -0.850300
     34 H1           3.1930     0.0800     3.1140 hn         1 1EG       0.229133
     35 H2           4.4980     0.7750     2.4180 hn         1 1EG       0.229133
     36 H3           4.9650     0.0070     0.0920 hn         1 1EG       0.285800
     37 H4           2.7300    -0.0230    -4.3780 h5         1 1EG       0.031100
     38 H5           5.8070     0.6270    -2.2710 h2         1 1EG       0.059700
     39 H6           5.0060    -2.1330    -3.3130 h1         1 1EG       0.030700
     40 H7           6.2210    -2.7690    -1.5980 ho         1 1EG       0.415000
     41 H8           6.9310    -2.1790    -4.6380 h1         1 1EG       0.028700
     42 H9           8.7670    -1.8140    -3.6170 ho         1 1EG       0.413000
     43 H10          7.3310     0.7020    -4.6530 h1         1 1EG       0.072700
     44 H11          5.5880    -1.0700    -6.4130 h1         1 1EG       0.021200
     45 H12          7.3340    -0.8700    -6.6200 h1         1 1EG       0.021200
     46 H15          4.4520    -1.0030    -9.1350 hn         1 1EG       0.252500
     47 H16          2.0740    -0.9800    -8.4130 hx         1 1EG       0.083700
     48 H17          1.4920     1.0800    -7.0580 hn         1 1EG       0.228800
     49 H18          0.2900     0.2190    -7.7530 hn         1 1EG       0.228800
     50 H20          1.6300     1.1940   -10.4890 hc         1 1EG       0.069200
     51 H21          2.4920    -0.3200   -10.7930 hc         1 1EG       0.069200
     52 H22         -0.3930    -0.0840    -9.8630 hc         1 1EG       0.000700
     53 H23          0.4700    -1.5980   -10.1660 hc         1 1EG       0.000700
     54 H231         4.3560    -0.8650     2.4940 hn         1 1EG       0.229133
     55 HN3          0.8000     1.6200    -8.4320 hn         1 1EG       0.228800
@<TRIPOS>BOND
     1     1     2 2   
     2     2     3 1   
     3     2     7 1   
     4     3     4 2   
     5     4     5 1   
     6     4     6 1   
     7     5    34 1   
     8     5    35 1   
     9     5    54 1   
    10     6     8 1   
    11     6    36 1   
    12     7     8 2   
    13     7     9 1   
    14     8    11 1   
    15     9    10 2   
    16    10    11 1   
    17    10    37 1   
    18    11    12 1   
    19    12    13 1   
    20    12    14 1   
    21    12    38 1   
    22    13    18 1   
    23    14    15 1   
    24    14    16 1   
    25    14    39 1   
    26    15    40 1   
    27    16    17 1   
    28    16    18 1   
    29    16    41 1   
    30    17    42 1   
    31    18    19 1   
    32    18    43 1   
    33    19    20 1   
    34    19    44 1   
    35    19    45 1   
    36    20    21 1   
    37    21    22 2   
    38    21    23 2   
    39    21    24 1   
    40    24    25 1   
    41    24    46 1   
    42    25    26 2   
    43    25    27 1   
    44    27    28 1   
    45    27    29 1   
    46    27    47 1   
    47    28    48 1   
    48    28    49 1   
    49    28    55 1   
    50    29    30 1   
    51    29    50 1   
    52    29    51 1   
    53    30    31 1   
    54    30    52 1   
    55    30    53 1   
    56    31    32 1   
    57    31    33 1   
@<TRIPOS>SUBSTRUCTURE
     1 1EG         1 TEMP              0 ****  ****    0 ROOT
