@<TRIPOS>MOLECULE
molecule
   55    57     1     0     0
SMALL
bcc


@<TRIPOS>ATOM
      1 O6           0.0000     0.0000     0.0000 o          1 1EG      -0.420100
      2 C6           1.2210     0.0000     0.0000 c          1 1EG       0.628000
      3 N1           1.9060     0.0000     1.1540 nc         1 1EG      -0.642100
      4 C2           3.2220     0.0010     1.1690 cd         1 1EG       0.696100
      5 N2           3.8660     0.0000     2.3770 nz         1 1EG      -0.746600
      6 N3           3.9660     0.0020     0.0320 na         1 1EG      -0.669600
      7 C5           1.9700    -0.0050    -1.2600 cd         1 1EG       0.266800
      8 C4           3.3580     0.0020    -1.1970 cc         1 1EG       0.004000
      9 N7           1.6250    -0.0100    -2.5680 nd         1 1EG      -0.608000
     10 C8           2.7060    -0.0120    -3.2950 cc         1 1EG       0.457400
     11 N9           3.8020     0.0030    -2.4850 na         1 1EG      -0.180900
     12 C1'          5.2010     0.0040    -2.9180 c3         1 1EG       0.241800
     13 O4'          5.3070     0.4460    -4.2880 os         1 1EG      -0.394600
     14 C2'          5.7600    -1.4400    -2.9590 c3         1 1EG       0.088100
     15 O2'          6.2610    -1.8300    -1.6790 oh         1 1EG      -0.596800
     16 C3'          6.9110    -1.3140    -3.9870 c3         1 1EG       0.092100
     17 O3'          8.1640    -1.1530    -3.3180 oh         1 1EG      -0.568800
     18 C4'          6.5600    -0.0460    -4.7920 c3         1 1EG       0.126100
     19 C5'          6.4240    -0.3940    -6.2760 c3         1 1EG       0.161400
     20 O5'          6.1980     0.8010    -7.0260 os         1 1EG      -0.540500
     21 SBG          6.0470     0.5730    -8.5240 s6         1 1EG       1.644100
     22 OAF          6.0320     1.8600    -9.1260 o          1 1EG      -0.590300
     23 OAG          6.9830    -0.4380    -8.8710 o          1 1EG      -0.590300
     24 NAQ          4.5430    -0.0760    -8.7700 ns         1 1EG      -0.661300
     25 C            3.4420     0.6490    -8.4940 c          1 1EG       0.669100
     26 O            3.5520     1.7780    -8.0630 o          1 1EG      -0.555100
     27 CA           2.0740     0.0590    -8.7190 c3         1 1EG       0.013500
     28 N            1.0840     0.8030    -7.9280 nz         1 1EG      -0.795600
     29 CB           1.7160     0.1530   -10.2030 c3         1 1EG      -0.086400
     30 CG           0.3840    -0.5570   -10.4520 c3         1 1EG      -0.206400
     31 CD           0.0310    -0.4650   -11.9150 c          1 1EG       0.887600
     32 OE1          0.7700     0.1110   -12.6800 o          1 1EG      -0.800800
     33 OE2         -1.1030    -1.0210   -12.3690 o          1 1EG      -0.800800
     34 H1           3.1930     0.0800     3.1140 hn         1 1EG       0.488133
     35 H2           4.4980     0.7750     2.4180 hn         1 1EG       0.488133
     36 H3           4.9650     0.0070     0.0920 hn         1 1EG       0.463800
     37 H4           2.7300    -0.0230    -4.3780 h5         1 1EG       0.084100
     38 H5           5.8070     0.6270    -2.2710 h2         1 1EG       0.101700
     39 H6           5.0060    -2.1330    -3.3130 h1         1 1EG       0.070700
     40 H7           6.2210    -2.7690    -1.5980 ho         1 1EG       0.429000
     41 H8           6.9310    -2.1790    -4.6380 h1         1 1EG       0.066700
     42 H9           8.7670    -1.8140    -3.6170 ho         1 1EG       0.428000
     43 H10          7.3310     0.7020    -4.6530 h1         1 1EG       0.116700
     44 H11          5.5880    -1.0700    -6.4130 h1         1 1EG       0.070700
     45 H12          7.3340    -0.8700    -6.6200 h1         1 1EG       0.070700
     46 H15          4.4520    -1.0030    -9.1350 hn         1 1EG       0.362500
     47 H16          2.0740    -0.9800    -8.4130 hx         1 1EG       0.108700
     48 H17          1.4920     1.0800    -7.0580 hn         1 1EG       0.459800
     49 H18          0.2900     0.2190    -7.7530 hn         1 1EG       0.459800
     50 H20          1.6300     1.1940   -10.4890 hc         1 1EG       0.103700
     51 H21          2.4920    -0.3200   -10.7930 hc         1 1EG       0.103700
     52 H22         -0.3930    -0.0840    -9.8630 hc         1 1EG       0.026200
     53 H23          0.4700    -1.5980   -10.1660 hc         1 1EG       0.026200
     54 H231         4.3560    -0.8650     2.4940 hn         1 1EG       0.488133
     55 HN3          0.8000     1.6200    -8.4320 hn         1 1EG       0.459800
@<TRIPOS>BOND
     1    15    14 1   
     2    13    18 1   
     3    13    12 1   
     4    18    19 1   
     5    18    16 1   
     6    17    16 1   
     7    12    14 1   
     8    12    11 1   
     9    19    20 1   
    10    14    16 1   
    11     6     8 1   
    12     6     4 1   
    13     5     4 1   
    14    11     8 1   
    15    11    10 1   
    16    22    21 2   
    17     8     7 2   
    18     4     3 2   
    19    20    21 1   
    20    10     9 2   
    21    21    23 2   
    22     3     2 1   
    23     7     9 1   
    24     7     2 1   
    25    24    25 1   
    26     2     1 2   
    27    25    26 2   
    28    25    27 1   
    29    28    27 1   
    30    27    29 1   
    31    29    30 1   
    32    32    31 1   
    33    30    31 1   
    34    31    33 1   
    35    21    24 1   
    36     5    34 1   
    37     5    35 1   
    38     6    36 1   
    39    10    37 1   
    40    12    38 1   
    41    14    39 1   
    42    15    40 1   
    43    16    41 1   
    44    17    42 1   
    45    18    43 1   
    46    19    44 1   
    47    19    45 1   
    48    24    46 1   
    49    27    47 1   
    50    28    48 1   
    51    28    49 1   
    52    29    50 1   
    53    29    51 1   
    54    30    52 1   
    55    30    53 1   
    56    54     5 1   
    57    55    28 1   
@<TRIPOS>SUBSTRUCTURE
     1 1EG         1 TEMP              0 ****  ****    0 ROOT
