@<TRIPOS>MOLECULE
1EH
   44    47     1     0     0
SMALL
bcc


@<TRIPOS>ATOM
      1 CAB         -0.3950     0.0310    -0.5830 ca         1 1EH      -0.216300
      2 CAE          0.7110     0.7080    -1.1510 ca         1 1EH       0.499300
      3 Cl           1.1850     0.2830    -2.7270 cl         1 1EH      -0.081000
      4 NAH          1.4030     1.6730    -0.4970 nb         1 1EH      -0.608000
      5 CAF          1.0140     1.9780     0.7520 ca         1 1EH       0.435200
      6 CAC         -0.0730     1.3640     1.4050 ca         1 1EH      -0.248300
      7 CAA         -0.7840     0.3770     0.7140 ca         1 1EH      -0.127300
      8 CAD         -1.9150    -0.3390     1.3730 c3         1 1EH       0.165100
      9 NAG         -3.1330     0.5320     1.5060 ny         1 1EH      -0.672800
     10 CAM         -3.9350     0.6290     0.2170 c          1 1EH       0.609700
     11 OAP         -4.1390    -0.4300    -0.3610 o          1 1EH      -0.418100
     12 CAL         -4.3500     1.9570    -0.1580 cc         1 1EH      -0.313700
     13 SAK         -4.5650     2.4220    -1.7480 ss         1 1EH       0.306200
     14 CAO         -4.6500     3.0130     0.7180 cd         1 1EH      -0.094000
     15 CAN         -5.0410     4.1710     0.0160 cd         1 1EH      -0.157000
     16 CAJ         -5.0110     3.9670    -1.3710 cc         1 1EH      -0.059100
     17 CAV         -5.2470     4.9810    -2.3770 ca         1 1EH      -0.005000
     18 CAY         -4.3070     5.1770    -3.3800 ca         1 1EH      -0.088000
     19 CAX         -4.4670     6.1840    -4.3570 ca         1 1EH      -0.075000
     20 CAT         -5.5660     7.0170    -4.3420 ca         1 1EH      -0.071000
     21 CAQ         -6.5420     6.8420    -3.3420 ca         1 1EH      -0.094100
     22 SAS         -7.9330     7.7190    -3.1180 ss         1 1EH       0.307500
     23 CAR         -6.3980     5.8130    -2.3590 ca         1 1EH      -0.073800
     24 CAU         -7.5160     5.8010    -1.4760 cc         1 1EH      -0.060200
     25 CAW         -8.4290     6.8030    -1.7950 cd         1 1EH      -0.301600
     26 CAZ         -9.6360     7.1180    -1.0750 c          1 1EH       0.607300
     27 OBB        -10.1160     8.1870    -0.7390 o          1 1EH      -0.377100
     28 NBA        -10.4820     5.9090    -0.6840 nz         1 1EH      -0.761400
     29 H1          -0.9100    -0.7610    -1.1480 ha         1 1EH       0.172000
     30 H2           1.6180     2.7560     1.2600 h4         1 1EH       0.060100
     31 H3          -0.3190     1.6400     2.4390 ha         1 1EH       0.150000
     32 H4          -2.2090    -1.2620     0.7880 hx         1 1EH       0.127200
     33 H5          -1.6130    -0.6520     2.4170 hx         1 1EH       0.127200
     34 H6          -3.7410     0.1300     2.2290 hn         1 1EH       0.460800
     35 H7          -4.6120     2.9680     1.8100 ha         1 1EH       0.162000
     36 H8          -5.2960     5.1200     0.4970 ha         1 1EH       0.184000
     37 H9          -3.4000     4.5510    -3.4200 ha         1 1EH       0.156000
     38 H10         -3.6910     6.3030    -5.1330 ha         1 1EH       0.177000
     39 H11         -5.6840     7.8120    -5.0970 ha         1 1EH       0.176000
     40 H12         -7.5960     5.1000    -0.6400 ha         1 1EH       0.154000
     41 H13         -9.9120     5.2240    -0.1850 hn         1 1EH       0.468800
     42 H14        -10.8580     5.4710    -1.5310 hn         1 1EH       0.468800
     43 HBA3       -11.2640     6.2070    -0.0860 hn         1 1EH       0.468800
     44 HAG2        -2.8430     1.4730     1.7950 hn         1 1EH       0.460800
@<TRIPOS>BOND
     1     1     2 ar  
     2     1     7 ar  
     3     1    29 1   
     4     2     3 1   
     5     2     4 ar  
     6     4     5 ar  
     7     5     6 ar  
     8     5    30 1   
     9     6     7 ar  
    10     6    31 1   
    11     7     8 1   
    12     8     9 1   
    13     8    32 1   
    14     8    33 1   
    15     9    10 1   
    16     9    34 1   
    17     9    44 1   
    18    10    11 2   
    19    10    12 1   
    20    12    13 1   
    21    12    14 2   
    22    13    16 1   
    23    14    15 1   
    24    14    35 1   
    25    15    16 2   
    26    15    36 1   
    27    16    17 1   
    28    17    18 ar  
    29    17    23 ar  
    30    18    19 ar  
    31    18    37 1   
    32    19    20 ar  
    33    19    38 1   
    34    20    21 ar  
    35    20    39 1   
    36    21    22 1   
    37    21    23 ar  
    38    22    25 1   
    39    23    24 1   
    40    24    25 2   
    41    24    40 1   
    42    25    26 1   
    43    26    27 2   
    44    26    28 1   
    45    28    41 1   
    46    28    42 1   
    47    28    43 1   
@<TRIPOS>SUBSTRUCTURE
     1 1EH         1 TEMP              0 ****  ****    0 ROOT
