@<TRIPOS>MOLECULE
1EH
   43    46     1     0     0
SMALL
bcc


@<TRIPOS>ATOM
      1 CAB          0.0000     0.0000     0.0000 ca         1 1EH      -0.200300
      2 CAE          1.3840     0.0000     0.0000 ca         1 1EH       0.397300
      3 Cl           2.2430    -0.0010    -1.5090 cl         1 1EH      -0.077000
      4 NAH          2.0580     0.0000     1.1350 nb         1 1EH      -0.551000
      5 CAF          1.4470     0.0010     2.3030 ca         1 1EH       0.418200
      6 CAC          0.0680     0.0000     2.3810 ca         1 1EH      -0.205300
      7 CAA         -0.6750     0.0010     1.2090 ca         1 1EH      -0.091300
      8 CAD         -2.1820     0.0010     1.2530 c3         1 1EH       0.112300
      9 NAG         -2.6710    -1.3800     1.2660 ns         1 1EH      -0.187900
     10 CAM         -3.9960    -1.6260     1.3040 c          1 1EH       0.618700
     11 OAP         -4.7860    -0.7000     1.3260 o          1 1EH      -0.618100
     12 CAL         -4.4840    -3.0060     1.3180 cc         1 1EH      -0.034700
     13 SAK         -3.4670    -4.4410     1.2980 ss         1 1EH      -0.249800
     14 CAO         -5.8000    -3.3760     1.3550 cd         1 1EH      -0.049000
     15 CAN         -6.0150    -4.7260     1.3630 cd         1 1EH      -0.085000
     16 CAJ         -4.8810    -5.4860     1.3330 cc         1 1EH       0.008900
     17 CAV         -4.8460    -6.9600     1.3350 ca         1 1EH       0.104000
     18 CAY         -5.5840    -7.6690     2.2700 ca         1 1EH      -0.089000
     19 CAX         -5.5580    -9.0530     2.2790 ca         1 1EH      -0.012000
     20 CAT         -4.7990    -9.7410     1.3610 ca         1 1EH      -0.076000
     21 CAQ         -4.0420    -9.0560     0.4040 ca         1 1EH       0.108900
     22 SAS         -2.9940    -9.6650    -0.8730 ss         1 1EH      -0.206500
     23 CAR         -4.0560    -7.6570     0.3700 ca         1 1EH      -0.146800
     24 CAU         -3.2530    -7.1330    -0.6490 cc         1 1EH       0.128800
     25 CAW         -2.6080    -8.0350    -1.3990 cd         1 1EH      -0.242600
     26 CAZ         -1.7150    -7.7070    -2.5190 c          1 1EH       0.398300
     27 OBB         -1.5210    -6.5450    -2.8220 o          1 1EH      -0.444100
     28 NBA         -1.1130    -8.6940    -3.2120 nz         1 1EH       0.206600
     29 H1          -0.5480     0.0000    -0.9340 ha         1 1EH       0.127000
     30 H2           2.0340     0.0010     3.2140 h4         1 1EH      -0.009900
     31 H3          -0.4280     0.0010     3.3440 ha         1 1EH       0.123000
     32 H4          -2.5680     0.5120     0.3790 h1         1 1EH       0.038700
     33 H5          -2.5170     0.5120     2.1470 h1         1 1EH       0.038700
     34 H6          -2.0210    -2.1410     1.2480 hn         1 1EH       0.178500
     35 H7          -6.6090    -2.6560     1.3760 ha         1 1EH       0.153000
     36 H8          -7.0080    -5.1590     1.3890 ha         1 1EH       0.133000
     37 H9          -6.1850    -7.1370     2.9980 ha         1 1EH       0.133000
     38 H10         -6.1380    -9.5980     3.0140 ha         1 1EH       0.125000
     39 H11         -4.7870   -10.8240     1.3790 ha         1 1EH       0.128000
     40 H12         -3.1510    -6.0670    -0.8120 ha         1 1EH       0.152000
     41 H13         -0.5390    -8.2960    -3.9290 hn         1 1EH       0.248133
     42 H14         -0.5460    -9.2380    -2.5930 hn         1 1EH       0.248133
     43 HBA3        -1.8090    -9.2800    -3.6300 hn         1 1EH       0.248133
@<TRIPOS>BOND
     1     1     2 ar  
     2     1     7 ar  
     3     1    29 1   
     4     2     3 1   
     5     2     4 ar  
     6     4     5 ar  
     7     5     6 ar  
     8     5    30 1   
     9     6     7 ar  
    10     6    31 1   
    11     7     8 1   
    12     8     9 1   
    13     8    32 1   
    14     8    33 1   
    15     9    10 1   
    16     9    34 1   
    17    10    11 2   
    18    10    12 1   
    19    12    13 1   
    20    12    14 2   
    21    13    16 1   
    22    14    15 1   
    23    14    35 1   
    24    15    16 2   
    25    15    36 1   
    26    16    17 1   
    27    17    18 ar  
    28    17    23 ar  
    29    18    19 ar  
    30    18    37 1   
    31    19    20 ar  
    32    19    38 1   
    33    20    21 ar  
    34    20    39 1   
    35    21    22 1   
    36    21    23 ar  
    37    22    25 1   
    38    23    24 1   
    39    24    25 2   
    40    24    40 1   
    41    25    26 1   
    42    26    27 2   
    43    26    28 1   
    44    28    41 1   
    45    28    42 1   
    46    28    43 1   
@<TRIPOS>SUBSTRUCTURE
     1 1EH         1 TEMP              0 ****  ****    0 ROOT
