@<TRIPOS>MOLECULE
1EI
   52    54     1     0     0
SMALL
bcc


@<TRIPOS>ATOM
      1 O6           0.0000     0.0000     0.0000 o          1 1EI      -0.646500
      2 C6           1.2190     0.0000     0.0000 c          1 1EI       0.526000
      3 N1           1.9140     0.0000     1.1590 ns         1 1EI      -0.002400
      4 C2           3.2710     0.0000     1.1470 cc         1 1EI       0.337800
      5 N3           3.9550     0.0010     0.0370 nd         1 1EI      -0.515100
      6 C5           1.9480    -0.0050    -1.2160 cc         1 1EI       0.177800
      7 C4           3.3440     0.0030    -1.1560 cd         1 1EI      -0.121200
      8 N7           1.6010    -0.0090    -2.5250 nc         1 1EI      -0.528000
      9 C8           2.6780    -0.0120    -3.2550 cd         1 1EI       0.219400
     10 N9           3.7800     0.0050    -2.4520 na         1 1EI       0.298100
     11 C1'          5.1760     0.0070    -2.8970 c3         1 1EI       0.146800
     12 O4'          5.2730     0.4500    -4.2670 os         1 1EI      -0.400600
     13 C2'          5.7360    -1.4380    -2.9440 c3         1 1EI       0.130100
     14 O2'          6.2460    -1.8300    -1.6680 oh         1 1EI      -0.533800
     15 C3'          6.8790    -1.3100    -3.9800 c3         1 1EI       0.132100
     16 O3'          8.1360    -1.1500    -3.3210 oh         1 1EI      -0.543800
     17 C4'          6.5220    -0.0410    -4.7810 c3         1 1EI       0.152100
     18 C5'          6.3750    -0.3880    -6.2640 c3         1 1EI       0.248400
     19 O5'          6.1430     0.8080    -7.0110 os         1 1EI      -0.440500
     20 SBF          5.9810     0.5820    -8.5070 s6         1 1EI       1.367100
     21 OAE          5.9610     1.8690    -9.1080 o          1 1EI      -0.558800
     22 OAF          6.9140    -0.4290    -8.8640 o          1 1EI      -0.558800
     23 NAQ          4.4760    -0.0670    -8.7450 ns         1 1EI      -0.316300
     24 C            3.3760     0.6590    -8.4590 c          1 1EI       0.650100
     25 O            3.4890     1.7860    -8.0280 o          1 1EI      -0.587100
     26 CA           2.0070     0.0680    -8.6740 c3         1 1EI      -0.170500
     27 N            1.0220     0.8100    -7.8760 nz         1 1EI       0.056400
     28 CB           1.6380     0.1640   -10.1560 c3         1 1EI      -0.019400
     29 CG           0.3040    -0.5470   -10.3960 c3         1 1EI      -0.152400
     30 CD          -0.0600    -0.4530   -11.8560 c          1 1EI       0.972600
     31 OE1         -1.1970    -1.0080   -12.3020 o          1 1EI      -0.857300
     32 OE2          0.6730     0.1230   -12.6250 o          1 1EI      -0.857300
     33 H1           1.4250    -0.0010     2.0320 hn         1 1EI       0.187500
     34 H2           3.8030     0.0000     2.0910 h5         1 1EI       0.011800
     35 H3           2.6970    -0.0270    -4.3380 h5         1 1EI       0.009100
     36 H4           5.7870     0.6280    -2.2530 h2         1 1EI       0.079700
     37 H5           4.9790    -2.1300    -3.2930 h1         1 1EI       0.018700
     38 H6           6.1500    -2.7620    -1.5640 ho         1 1EI       0.395000
     39 H7           6.8940    -2.1740    -4.6320 h1         1 1EI       0.012700
     40 H8           8.7360    -1.8110    -3.6240 ho         1 1EI       0.398000
     41 H9           7.2940     0.7070    -4.6460 h1         1 1EI       0.065700
     42 H10          5.5390    -1.0640    -6.3960 h1         1 1EI       0.017200
     43 H11          7.2830    -0.8630    -6.6160 h1         1 1EI       0.017200
     44 H14          4.3830    -0.9990    -9.0960 hn         1 1EI       0.248500
     45 H15          2.0100    -0.9720    -8.3690 hx         1 1EI       0.086700
     46 H16          0.5150     0.1720    -7.2950 hn         1 1EI       0.236133
     47 H17          0.3860     1.2830    -8.4860 hn         1 1EI       0.236133
     48 H19          1.5480     1.2050   -10.4400 hc         1 1EI       0.065700
     49 H20          2.4100    -0.3080   -10.7520 hc         1 1EI       0.065700
     50 H21         -0.4690    -0.0750    -9.8010 hc         1 1EI       0.002200
     51 H22          0.3930    -1.5880   -10.1130 hc         1 1EI       0.002200
     52 HN3          1.4920     1.5020    -7.3260 hn         1 1EI       0.236133
@<TRIPOS>BOND
     1     1     2 2   
     2     2     3 1   
     3     2     6 1   
     4     3     4 1   
     5     3    33 1   
     6     4     5 2   
     7     4    34 1   
     8     5     7 1   
     9     6     7 2   
    10     6     8 1   
    11     7    10 1   
    12     8     9 2   
    13     9    10 1   
    14     9    35 1   
    15    10    11 1   
    16    11    12 1   
    17    11    13 1   
    18    11    36 1   
    19    12    17 1   
    20    13    14 1   
    21    13    15 1   
    22    13    37 1   
    23    14    38 1   
    24    15    16 1   
    25    15    17 1   
    26    15    39 1   
    27    16    40 1   
    28    17    18 1   
    29    17    41 1   
    30    18    19 1   
    31    18    42 1   
    32    18    43 1   
    33    19    20 1   
    34    20    21 2   
    35    20    22 2   
    36    20    23 1   
    37    23    24 1   
    38    23    44 1   
    39    24    25 2   
    40    24    26 1   
    41    26    27 1   
    42    26    28 1   
    43    26    45 1   
    44    27    46 1   
    45    27    47 1   
    46    27    52 1   
    47    28    29 1   
    48    28    48 1   
    49    28    49 1   
    50    29    30 1   
    51    29    50 1   
    52    29    51 1   
    53    30    31 1   
    54    30    32 1   
@<TRIPOS>SUBSTRUCTURE
     1 1EI         1 TEMP              0 ****  ****    0 ROOT
