@<TRIPOS>MOLECULE
1EI
   53    55     1     0     0
SMALL
bcc


@<TRIPOS>ATOM
      1 O6           0.1470    -1.2780    -0.3970 o          1 1EI      -0.564500
      2 C6           1.1790    -0.6120    -0.5310 c          1 1EI       0.632000
      3 N1           1.2530     0.6830     0.0600 ns         1 1EI      -0.486400
      4 C2           2.3730     1.4810    -0.0540 cc         1 1EI       0.523800
      5 N3           3.5000     1.1950    -0.6970 nd         1 1EI      -0.623100
      6 C5           2.3940    -0.9820    -1.2480 cc         1 1EI       0.200800
      7 C4           3.4970    -0.0590    -1.2970 cd         1 1EI       0.106800
      8 N7           2.7090    -2.1540    -1.9400 nc         1 1EI      -0.554000
      9 C8           3.9550    -1.9640    -2.4020 cd         1 1EI       0.369400
     10 N9           4.5080    -0.7070    -2.0250 na         1 1EI      -0.233900
     11 C1'          5.7330    -0.1070    -2.4620 c3         1 1EI       0.217800
     12 O4'          5.6010     0.4960    -3.7720 os         1 1EI      -0.389600
     13 C2'          6.9200    -1.1130    -2.5960 c3         1 1EI       0.091100
     14 O2'          8.1470    -0.5180    -2.2550 oh         1 1EI      -0.569800
     15 C3'          6.9020    -1.5020    -4.0930 c3         1 1EI       0.068100
     16 O3'          8.1770    -1.6250    -4.6880 oh         1 1EI      -0.660800
     17 C4'          6.1180    -0.3650    -4.7850 c3         1 1EI       0.054100
     18 C5'          4.9520    -0.8780    -5.6310 c3         1 1EI       0.164400
     19 O5'          5.3900    -1.8900    -6.5340 os         1 1EI      -0.551500
     20 SBF          6.2690    -1.6200    -7.8740 s6         1 1EI       1.639400
     21 OAE          6.6140    -0.2970    -7.8950 o          1 1EI      -0.573300
     22 OAF          5.7640    -2.3370    -8.9170 o          1 1EI      -0.573300
     23 NAQ          7.8270    -2.4630    -7.3620 ny         1 1EI      -0.624700
     24 C            8.2670    -3.6090    -8.2200 c          1 1EI       0.534100
     25 O            9.3130    -3.4490    -8.8310 o          1 1EI      -0.425100
     26 CA           7.3970    -4.8890    -8.2460 c3         1 1EI       0.142500
     27 N            6.2490    -4.7460    -7.3910 n8         1 1EI      -0.974800
     28 CB           7.1110    -5.1850    -9.7320 c3         1 1EI      -0.101400
     29 CG           6.7650    -6.6370    -9.9810 c3         1 1EI      -0.184400
     30 CD           5.3350    -6.9780    -9.6800 c          1 1EI       0.629100
     31 OE1          4.8080    -8.1290   -10.1750 oh         1 1EI      -0.548100
     32 OE2          4.5430    -6.3250    -8.9950 o          1 1EI      -0.512000
     33 H1           0.4600     1.0060     0.5730 hn         1 1EI       0.351500
     34 H2           2.3290     2.4750     0.4460 h5         1 1EI       0.070800
     35 H3           4.5360    -2.6980    -2.9690 h5         1 1EI       0.055100
     36 H4           5.9830     0.7630    -1.7790 h2         1 1EI       0.150700
     37 H5           6.8310    -2.0090    -1.9230 h1         1 1EI       0.131700
     38 H6           8.1450     0.3970    -2.5750 ho         1 1EI       0.426000
     39 H7           6.3890    -2.4930    -4.2400 h1         1 1EI       0.086700
     40 H8           8.8580    -1.3720    -4.0440 ho         1 1EI       0.463000
     41 H9           6.7990     0.2780    -5.4130 h1         1 1EI       0.101700
     42 H10          4.1790    -1.4060    -5.0010 h1         1 1EI       0.109700
     43 H11          4.4780    -0.0360    -6.2020 h1         1 1EI       0.109700
     44 H14          8.5890    -1.7760    -7.3040 hn         1 1EI       0.488300
     45 H15          8.1010    -5.6850    -7.8440 h1         1 1EI       0.105700
     46 H16          5.4600    -8.5980   -10.7180 ho         1 1EI       0.438000
     47 H17          5.3960    -4.6380    -7.9160 hn         1 1EI       0.416300
     48 H19          6.2760    -4.5240   -10.0950 hc         1 1EI       0.094700
     49 H20          8.0320    -4.9390   -10.3290 hc         1 1EI       0.094700
     50 H21          6.9640    -6.8630   -11.0660 hc         1 1EI       0.090200
     51 H22          7.4220    -7.3160    -9.3730 hc         1 1EI       0.090200
     52 HN3          6.1580    -5.5140    -6.7570 hn         1 1EI       0.416300
     53 HAQ2         7.7100    -2.8330    -6.4060 hn         1 1EI       0.488300
@<TRIPOS>BOND
     1     1     2 2   
     2     2     3 1   
     3     2     6 1   
     4     3     4 1   
     5     3    33 1   
     6     4     5 2   
     7     4    34 1   
     8     5     7 1   
     9     6     7 2   
    10     6     8 1   
    11     7    10 1   
    12     8     9 2   
    13     9    10 1   
    14     9    35 1   
    15    10    11 1   
    16    11    12 1   
    17    11    13 1   
    18    11    36 1   
    19    12    17 1   
    20    13    14 1   
    21    13    15 1   
    22    13    37 1   
    23    14    38 1   
    24    15    16 1   
    25    15    17 1   
    26    15    39 1   
    27    16    40 1   
    28    17    18 1   
    29    17    41 1   
    30    18    19 1   
    31    18    42 1   
    32    18    43 1   
    33    19    20 1   
    34    20    21 2   
    35    20    22 2   
    36    20    23 1   
    37    23    24 1   
    38    23    44 1   
    39    23    53 1   
    40    24    25 2   
    41    24    26 1   
    42    26    27 1   
    43    26    28 1   
    44    26    45 1   
    45    27    47 1   
    46    27    52 1   
    47    28    29 1   
    48    28    48 1   
    49    28    49 1   
    50    29    30 1   
    51    29    50 1   
    52    29    51 1   
    53    30    31 1   
    54    30    32 2   
    55    31    46 1   
@<TRIPOS>SUBSTRUCTURE
     1 1EI         1 TEMP              0 ****  ****    0 ROOT
