@<TRIPOS>MOLECULE
molecule
   52    54     1     0     0
SMALL
bcc


@<TRIPOS>ATOM
      1 O6           0.0000     0.0000     0.0000 o          1 1EI      -0.600500
      2 C6           1.2190     0.0000     0.0000 c          1 1EI       0.622000
      3 N1           1.9140     0.0000     1.1590 ns         1 1EI      -0.468400
      4 C2           3.2710     0.0000     1.1470 cc         1 1EI       0.523800
      5 N3           3.9550     0.0010     0.0370 nd         1 1EI      -0.642100
      6 C5           1.9480    -0.0050    -1.2160 cc         1 1EI       0.216800
      7 C4           3.3440     0.0030    -1.1560 cd         1 1EI       0.101800
      8 N7           1.6010    -0.0090    -2.5250 nc         1 1EI      -0.632000
      9 C8           2.6780    -0.0120    -3.2550 cd         1 1EI       0.411400
     10 N9           3.7800     0.0050    -2.4520 na         1 1EI      -0.181900
     11 C1'          5.1760     0.0070    -2.8970 c3         1 1EI       0.257800
     12 O4'          5.2730     0.4500    -4.2670 os         1 1EI      -0.411600
     13 C2'          5.7360    -1.4380    -2.9440 c3         1 1EI       0.095100
     14 O2'          6.2460    -1.8300    -1.6680 oh         1 1EI      -0.551800
     15 C3'          6.8790    -1.3100    -3.9800 c3         1 1EI       0.087100
     16 O3'          8.1360    -1.1500    -3.3210 oh         1 1EI      -0.561800
     17 C4'          6.5220    -0.0410    -4.7810 c3         1 1EI       0.130100
     18 C5'          6.3750    -0.3880    -6.2640 c3         1 1EI       0.157400
     19 O5'          6.1430     0.8080    -7.0110 os         1 1EI      -0.534500
     20 SBF          5.9810     0.5820    -8.5070 s6         1 1EI       1.648100
     21 OAE          5.9610     1.8690    -9.1080 o          1 1EI      -0.603300
     22 OAF          6.9140    -0.4290    -8.8640 o          1 1EI      -0.603300
     23 NAQ          4.4760    -0.0670    -8.7450 ns         1 1EI      -0.659300
     24 C            3.3760     0.6590    -8.4590 c          1 1EI       0.674100
     25 O            3.4890     1.7860    -8.0280 o          1 1EI      -0.549100
     26 CA           2.0070     0.0680    -8.6740 c3         1 1EI       0.014500
     27 N            1.0220     0.8100    -7.8760 nz         1 1EI      -0.805600
     28 CB           1.6380     0.1640   -10.1560 c3         1 1EI      -0.087400
     29 CG           0.3040    -0.5470   -10.3960 c3         1 1EI      -0.206400
     30 CD          -0.0600    -0.4530   -11.8560 c          1 1EI       0.888600
     31 OE1         -1.1970    -1.0080   -12.3020 o          1 1EI      -0.807300
     32 OE2          0.6730     0.1230   -12.6250 o          1 1EI      -0.807300
     33 H1           1.4250    -0.0010     2.0320 hn         1 1EI       0.348500
     34 H2           3.8030     0.0000     2.0910 h5         1 1EI       0.069800
     35 H3           2.6970    -0.0270    -4.3380 h5         1 1EI       0.057100
     36 H4           5.7870     0.6280    -2.2530 h2         1 1EI       0.123700
     37 H5           4.9790    -2.1300    -3.2930 h1         1 1EI       0.057700
     38 H6           6.1500    -2.7620    -1.5640 ho         1 1EI       0.411000
     39 H7           6.8940    -2.1740    -4.6320 h1         1 1EI       0.048700
     40 H8           8.7360    -1.8110    -3.6240 ho         1 1EI       0.414000
     41 H9           7.2940     0.7070    -4.6460 h1         1 1EI       0.107700
     42 H10          5.5390    -1.0640    -6.3960 h1         1 1EI       0.065700
     43 H11          7.2830    -0.8630    -6.6160 h1         1 1EI       0.065700
     44 H14          4.3830    -0.9990    -9.0960 hn         1 1EI       0.359500
     45 H15          2.0100    -0.9720    -8.3690 hx         1 1EI       0.110700
     46 H16          0.5150     0.1720    -7.2950 hn         1 1EI       0.463467
     47 H17          0.3860     1.2830    -8.4860 hn         1 1EI       0.463467
     48 H19          1.5480     1.2050   -10.4400 hc         1 1EI       0.101200
     49 H20          2.4100    -0.3080   -10.7520 hc         1 1EI       0.101200
     50 H21         -0.4690    -0.0750    -9.8010 hc         1 1EI       0.027700
     51 H22          0.3930    -1.5880   -10.1130 hc         1 1EI       0.027700
     52 HN3          1.4920     1.5020    -7.3260 hn         1 1EI       0.463467
@<TRIPOS>BOND
     1    16    15 1
     2    14    13 1
     3    17    12 1
     4    17    18 1
     5    17    15 1
     6    12    11 1
     7    11    13 1
     8    11    10 1
     9     5     4 2
    10     5     7 1
    11    18    19 1
    12    15    13 1
    13     4     3 1
    14     7    10 1
    15     7     6 2
    16    10     9 1
    17     3     2 1
    18    21    20 2
    19    19    20 1
    20     9     8 2
    21     6     2 1
    22     6     8 1
    23     2     1 2
    24    20    22 2
    25    23    24 1
    26    24    25 2
    27    24    26 1
    28    26    27 1
    29    26    28 1
    30    28    29 1
    31    29    30 1
    32    32    30 1
    33    30    31 1
    34    20    23 1
    35     3    33 1
    36     4    34 1
    37     9    35 1
    38    11    36 1
    39    13    37 1
    40    14    38 1
    41    15    39 1
    42    16    40 1
    43    17    41 1
    44    18    42 1
    45    18    43 1
    46    23    44 1
    47    26    45 1
    48    27    46 1
    49    27    47 1
    50    28    48 1
    51    28    49 1
    52    29    50 1
    53    29    51 1
    54    52    27 1
@<TRIPOS>SUBSTRUCTURE
     1 1EI         1 TEMP              0 ****  ****    0 ROOT
