@<TRIPOS>MOLECULE
1EJ
   34    37     1     0     0
SMALL
bcc


@<TRIPOS>ATOM
      1 C01         0.0210   -0.1290   -0.0190 ca        1 1EJ     -0.172500
      2 C02         1.3950    0.1730   -0.0450 ca        1 1EJ      0.126900
      3 C03         2.0890    0.4150    1.1550 ca        1 1EJ     -0.172500
      4 C04         1.4070    0.3570    2.3660 ca        1 1EJ     -0.077000
      5 C05         0.0400    0.0530    2.3990 ca        1 1EJ     -0.127500
      6 C06        -0.6470   -0.1870    1.1990 ca        1 1EJ     -0.077000
      7 C07        -0.7010    0.0070    3.6540 cc        1 1EJ      0.419000
      8 N08        -0.1900   -0.3770    4.9130 na        1 1EJ     -0.211800
      9 C09        -1.2770   -0.2600    5.7950 cc        1 1EJ      0.439800
     10 N10        -2.3660    0.1780    5.0730 nd        1 1EJ     -0.380000
     11 N11        -2.0290    0.3340    3.8200 nd        1 1EJ     -0.348000
     12 C12         1.1110   -0.8340    5.2460 ca        1 1EJ     -0.073200
     13 C13         2.0340    0.0440    5.8280 ca        1 1EJ     -0.062000
     14 C14         3.3090   -0.4240    6.1490 ca        1 1EJ     -0.128100
     15 C15         3.6660   -1.7810    5.8890 ca        1 1EJ     -0.036800
     16 C16         2.7280   -2.6490    5.3110 ca        1 1EJ     -0.095000
     17 C17         1.4660   -2.1880    4.9930 ca        1 1EJ     -0.124000
     18 S18        -1.2120   -0.6070    7.4460 sh        1 1EJ     -0.257100
     19 S19         4.6000    0.4040    6.8450 ss        1 1EJ      0.073500
     20 C20         5.6340   -0.9280    6.8250 cc        1 1EJ     -0.055600
     21 C21         5.0240   -2.0390    6.2930 cd        1 1EJ     -0.039800
     22 C22         7.0670   -0.8220    7.3520 c         1 1EJ      0.932800
     23 O23         7.2420   -1.0750    8.5700 o         1 1EJ     -0.787800
     24 O24         7.9450   -0.4660    6.5270 o         1 1EJ     -0.787800
     25 CL2         5.7330   -3.5550    6.1080 cl        1 1EJ     -0.077400
     26 F26         2.0500    0.2300   -1.2300 f         1 1EJ     -0.145900
     27 H011       -0.5140   -0.3160   -0.9610 ha        1 1EJ      0.150500
     28 H031        3.1640    0.6460    1.1290 ha        1 1EJ      0.150500
     29 H041        1.9580    0.5470    3.3030 ha        1 1EJ      0.157500
     30 H061       -1.7240   -0.4210    1.2160 ha        1 1EJ      0.157500
     31 H131        1.7690    1.0920    6.0390 ha        1 1EJ      0.142000
     32 H161        3.0070   -3.6950    5.1160 ha        1 1EJ      0.145000
     33 H171        0.7310   -2.8700    4.5400 ha        1 1EJ      0.136000
     34 H181       -2.4630   -0.2950    7.7560 hs        1 1EJ      0.203800
@<TRIPOS>BOND
     1    1    2 ar  
     2    1    6 ar  
     3    1   27 1   
     4    2    3 ar  
     5    2   26 1   
     6    3    4 ar  
     7    3   28 1   
     8    4    5 ar  
     9    4   29 1   
    10    5    6 ar  
    11    5    7 1   
    12    6   30 1   
    13    7    8 1   
    14    7   11 2   
    15    8    9 1   
    16    8   12 1   
    17    9   10 2   
    18    9   18 1   
    19   10   11 1   
    20   12   13 ar  
    21   12   17 ar  
    22   13   14 ar  
    23   13   31 1   
    24   14   15 ar  
    25   14   19 1   
    26   15   16 ar  
    27   15   21 1   
    28   16   17 ar  
    29   16   32 1   
    30   17   33 1   
    31   18   34 1   
    32   19   20 1   
    33   20   21 2   
    34   20   22 1   
    35   21   25 1   
    36   22   23 1   
    37   22   24 1   
@<TRIPOS>SUBSTRUCTURE
     1 1EJ         1 TEMP              0 ****  ****    0 ROOT
