@<TRIPOS>MOLECULE
1EJ
   34    37     1     0     0
SMALL
bcc


@<TRIPOS>ATOM
      1 C01          0.0970     0.3980    -0.0280 ca         1 1EJ      -0.172500
      2 C02          1.4020    -0.1270    -0.0510 ca         1 1EJ       0.126900
      3 C03          2.0010    -0.5880     1.1360 ca         1 1EJ      -0.172500
      4 C04          1.2960    -0.5200     2.3320 ca         1 1EJ      -0.077000
      5 C05         -0.0060     0.0030     2.3620 ca         1 1EJ      -0.127500
      6 C06         -0.5980     0.4570     1.1760 ca         1 1EJ      -0.077000
      7 C07         -0.7220     0.0350     3.6320 cc         1 1EJ       0.419000
      8 N08         -1.6910     0.9850     4.0230 na         1 1EJ      -0.211800
      9 C09         -2.0790     0.5950     5.3150 cc         1 1EJ       0.439800
     10 N10         -1.3660    -0.5370     5.6510 nd         1 1EJ      -0.380000
     11 N11         -0.5720    -0.8640     4.6650 nd         1 1EJ      -0.348000
     12 C12         -2.1590     2.1230     3.3180 ca         1 1EJ      -0.073200
     13 C13         -3.3810     2.0730     2.6360 ca         1 1EJ      -0.062000
     14 C14         -3.8250     3.2030     1.9490 ca         1 1EJ      -0.128100
     15 C15         -3.0420     4.3960     1.9430 ca         1 1EJ      -0.036800
     16 C16         -1.8240     4.4330     2.6350 ca         1 1EJ      -0.095000
     17 C17         -1.3830     3.3160     3.3160 ca         1 1EJ      -0.124000
     18 S18         -3.2250     1.4030     6.2550 sh         1 1EJ      -0.257100
     19 S19         -5.2360     3.4160     1.0540 ss         1 1EJ       0.073500
     20 C20         -4.8850     5.0110     0.6370 cc         1 1EJ      -0.055600
     21 C21         -3.6880     5.4270     1.1700 cd         1 1EJ      -0.039800
     22 C22         -5.8400     5.8250    -0.2390 c          1 1EJ       0.932800
     23 O23         -6.7270     6.4870     0.3540 o          1 1EJ      -0.787300
     24 O24         -5.6700     5.7440    -1.4820 o          1 1EJ      -0.787300
     25 Cl2         -3.0020     6.9520     0.9760 cl         1 1EJ      -0.077400
     26 F26          2.0850    -0.1900    -1.2190 f          1 1EJ      -0.145900
     27 H011        -0.3650     0.7610    -0.9580 ha         1 1EJ       0.150500
     28 H031         3.0200    -0.9970     1.1080 ha         1 1EJ       0.150500
     29 H041         1.7660    -0.8840     3.2600 ha         1 1EJ       0.157500
     30 H061        -1.6210     0.8700     1.1870 ha         1 1EJ       0.157500
     31 H131        -3.9960     1.1590     2.6380 ha         1 1EJ       0.142000
     32 H161        -1.2260     5.3570     2.6300 ha         1 1EJ       0.145000
     33 H171        -0.4260     3.3470     3.8590 ha         1 1EJ       0.136000
     34 H181        -3.2070     0.5990     7.3100 hs         1 1EJ       0.203800
@<TRIPOS>BOND
     1     1     2 ar  
     2     1     6 ar  
     3     1    27 1   
     4     2     3 ar  
     5     2    26 1   
     6     3     4 ar  
     7     3    28 1   
     8     4     5 ar  
     9     4    29 1   
    10     5     6 ar  
    11     5     7 1   
    12     6    30 1   
    13     7     8 1   
    14     7    11 2   
    15     8     9 1   
    16     8    12 1   
    17     9    10 2   
    18     9    18 1   
    19    10    11 1   
    20    12    13 ar  
    21    12    17 ar  
    22    13    14 ar  
    23    13    31 1   
    24    14    15 ar  
    25    14    19 1   
    26    15    16 ar  
    27    15    21 1   
    28    16    17 ar  
    29    16    32 1   
    30    17    33 1   
    31    18    34 1   
    32    19    20 1   
    33    20    21 2   
    34    20    22 1   
    35    21    25 1   
    36    22    23 1   
    37    22    24 1   
@<TRIPOS>SUBSTRUCTURE
     1 1EJ         1 TEMP              0 ****  ****    0 ROOT
