@<TRIPOS>MOLECULE
molecule
   34    37     1     0     0
SMALL
bcc


@<TRIPOS>ATOM
      1 C01          0.0000     0.0000     0.0000 ca         1 1EJ      -0.173500
      2 C02          1.3860     0.0000     0.0000 ca         1 1EJ       0.135900
      3 C03          2.0840     0.0000     1.1970 ca         1 1EJ      -0.173500
      4 C04          1.4030    -0.0010     2.3950 ca         1 1EJ      -0.077000
      5 C05          0.0070    -0.0020     2.4020 ca         1 1EJ      -0.133500
      6 C06         -0.6920    -0.0010     1.1940 ca         1 1EJ      -0.077000
      7 C07         -0.7290    -0.0030     3.6840 cc         1 1EJ       0.434000
      8 N08         -0.2210    -0.3350     4.9200 na         1 1EJ      -0.209800
      9 C09         -1.2610    -0.1890     5.7970 cc         1 1EJ       0.484800
     10 N10         -2.3040     0.2030     5.1010 nd         1 1EJ      -0.362000
     11 N11         -1.9900     0.3190     3.8600 nd         1 1EJ      -0.358000
     12 C12          1.0870    -0.7380     5.2170 ca         1 1EJ      -0.067200
     13 C13          1.9110     0.0850     5.9610 ca         1 1EJ      -0.063000
     14 C14          3.2160    -0.3150     6.2590 ca         1 1EJ      -0.070100
     15 C15          3.6900    -1.5520     5.8040 ca         1 1EJ      -0.042800
     16 C16          2.8230    -2.3750     5.0450 ca         1 1EJ      -0.090000
     17 C17          1.5550    -1.9730     4.7680 ca         1 1EJ      -0.135000
     18 S18         -1.2120    -0.4750     7.5350 sh         1 1EJ      -0.321100
     19 S19          4.4810     0.5030     7.1700 ss         1 1EJ      -0.008500
     20 C20          5.5960    -0.8280     6.9140 cc         1 1EJ       0.012400
     21 C21          5.0190    -1.7950     6.1870 cd         1 1EJ      -0.014800
     22 C22          6.9710    -0.8720     7.4180 c          1 1EJ       0.888800
     23 O23          7.4570     0.1570     8.1420 o          1 1EJ      -0.800800
     24 O24          7.6740    -1.8350     7.1830 o          1 1EJ      -0.800800
     25 Cl2          5.8560    -3.2530     5.7570 cl         1 1EJ      -0.079400
     26 F26          2.0590     0.0010    -1.1720 f          1 1EJ      -0.144900
     27 H011        -0.5410     0.0000    -0.9390 ha         1 1EJ       0.148500
     28 H031         3.1670     0.0000     1.1910 ha         1 1EJ       0.148500
     29 H041         1.9500    -0.0010     3.3300 ha         1 1EJ       0.161000
     30 H061        -1.7750    -0.0010     1.1930 ha         1 1EJ       0.161000
     31 H131         1.5410     1.0380     6.3200 ha         1 1EJ       0.143000
     32 H161         3.1710    -3.3370     4.6880 ha         1 1EJ       0.144000
     33 H171         0.8990    -2.6200     4.1980 ha         1 1EJ       0.134000
     34 H181        -2.3410    -1.0590     7.9200 hs         1 1EJ       0.207800
@<TRIPOS>BOND
     1    24    22 1
     2    25    21 1
     3    22    23 1
     4    22    20 1
     5    20    21 2
     6    20    19 1
     7    21    15 1
     8    26     2 1
     9    15    16 ar
    10    15    14 ar
    11    19    14 1
    12    16    17 ar
    13     2     1 ar
    14     2     3 ar
    15     1     6 ar
    16    14    13 ar
    17    17    12 ar
    18     3     4 ar
    19     6     5 ar
    20    13    12 ar
    21    12     8 1
    22     4     5 ar
    23     5     7 1
    24     8     7 1
    25     8     9 1
    26     7    11 2
    27     9    18 1
    28     9    10 2
    29    11    10 1
    30     1    27 1
    31     3    28 1
    32     4    29 1
    33     6    30 1
    34    13    31 1
    35    16    32 1
    36    17    33 1
    37    18    34 1
@<TRIPOS>SUBSTRUCTURE
     1 1EJ         1 TEMP              0 ****  ****    0 ROOT
