@<TRIPOS>MOLECULE
1EK
   37    40     1     0     0
SMALL
bcc


@<TRIPOS>ATOM
      1 C01          0.0790    -0.1180     0.0580 ca         1 1EK      -0.129000
      2 C02          1.4610    -0.1940     0.0820 ca         1 1EK      -0.096000
      3 C03          2.1300    -0.1480     1.3120 ca         1 1EK      -0.095100
      4 C04          1.3850    -0.0210     2.5180 ca         1 1EK      -0.069800
      5 C05         -0.0150     0.0550     2.4760 ca         1 1EK      -0.085000
      6 C06         -0.6570     0.0050     1.2510 ca         1 1EK      -0.142000
      7 S07          3.7810    -0.2180     1.6220 ss         1 1EK       0.086500
      8 C08          3.5870    -0.0970     3.3040 cc         1 1EK      -0.081200
      9 C09          2.2620     0.0170     3.6640 cd         1 1EK       0.007200
     10 C10          4.7500    -0.0630     4.1470 cc         1 1EK       0.345300
     11 N11          5.0120    -0.9010     5.2690 na         1 1EK      -0.242800
     12 C12          6.2360    -0.4290     5.7970 cc         1 1EK       0.431800
     13 N13          6.6460     0.6270     4.9990 nd         1 1EK      -0.410000
     14 N14          5.7830     0.8350     4.0440 nd         1 1EK      -0.305000
     15 S15          6.9820    -1.0650     7.1620 ss         1 1EK      -0.061400
     16 C16          8.4850    -0.1340     7.2880 c3         1 1EK      -0.177300
     17 C17          9.0360    -0.7830     8.5680 c          1 1EK       0.922600
     18 O18         10.1340    -0.4330     9.0520 o          1 1EK      -0.798300
     19 O19          8.2560    -1.6790     9.0400 o          1 1EK      -0.798300
     20 C20          4.3160    -2.0530     5.6770 ca         1 1EK       0.025800
     21 C21          4.2710    -2.4120     7.0440 ca         1 1EK      -0.132500
     22 C22          3.5950    -3.5630     7.4380 ca         1 1EK      -0.119000
     23 C23          2.9520    -4.3690     6.5010 ca         1 1EK      -0.147000
     24 C24          2.9940    -4.0230     5.1520 ca         1 1EK      -0.119000
     25 C25          3.6710    -2.8830     4.7330 ca         1 1EK      -0.132500
     26 Cl2          1.6850     0.2000     5.2290 cl         1 1EK      -0.050400
     27 H1          -0.4560    -0.1550    -0.9020 ha         1 1EK       0.125000
     28 H2           2.0350    -0.2880    -0.8510 ha         1 1EK       0.132000
     29 H3          -0.5830     0.1530     3.4130 ha         1 1EK       0.142000
     30 H4          -1.7540     0.0640     1.2020 ha         1 1EK       0.126000
     31 H5           9.1680    -0.2870     6.4270 h1         1 1EK       0.073200
     32 H6           8.3180     0.9550     7.4240 h1         1 1EK       0.073200
     33 H8           4.7830    -1.7940     7.8060 ha         1 1EK       0.158500
     34 H9           3.5790    -3.8340     8.5050 ha         1 1EK       0.130000
     35 H10          2.4210    -5.2750     6.8230 ha         1 1EK       0.124000
     36 H11          2.4940    -4.6570     4.4050 ha         1 1EK       0.130000
     37 H12          3.7000    -2.6300     3.6620 ha         1 1EK       0.158500
@<TRIPOS>BOND
     1     1     2 ar  
     2     1     6 ar  
     3     1    27 1   
     4     2     3 ar  
     5     2    28 1   
     6     3     4 ar  
     7     3     7 1   
     8     4     5 ar  
     9     4     9 1   
    10     5     6 ar  
    11     5    29 1   
    12     6    30 1   
    13     7     8 1   
    14     8     9 2   
    15     8    10 1   
    16     9    26 1   
    17    10    11 1   
    18    10    14 2   
    19    11    12 1   
    20    11    20 1   
    21    12    13 2   
    22    12    15 1   
    23    13    14 1   
    24    15    16 1   
    25    16    17 1   
    26    16    31 1   
    27    16    32 1   
    28    17    18 1   
    29    17    19 1   
    30    20    21 ar  
    31    20    25 ar  
    32    21    22 ar  
    33    21    33 1   
    34    22    23 ar  
    35    22    34 1   
    36    23    24 ar  
    37    23    35 1   
    38    24    25 ar  
    39    24    36 1   
    40    25    37 1   
@<TRIPOS>SUBSTRUCTURE
     1 1EK         1 TEMP              0 ****  ****    0 ROOT
