@<TRIPOS>MOLECULE
molecule
   37    40     1     0     0
SMALL
bcc


@<TRIPOS>ATOM
      1 C01          0.0000     0.0000     0.0000 ca         1 1EK      -0.124000
      2 C02          1.3750     0.0000     0.0000 ca         1 1EK      -0.097000
      3 C03          2.0780     0.0000     1.2090 ca         1 1EK      -0.026100
      4 C04          1.3770     0.0020     2.4190 ca         1 1EK      -0.066800
      5 C05         -0.0360     0.0030     2.3880 ca         1 1EK      -0.082000
      6 C06         -0.7000     0.0070     1.1990 ca         1 1EK      -0.138000
      7 S07          3.8090    -0.0000     1.5210 ss         1 1EK      -0.061500
      8 C08          3.5680     0.0020     3.2570 cc         1 1EK      -0.043200
      9 C09          2.2680     0.0030     3.5640 cd         1 1EK       0.037200
     10 C10          4.6560     0.0020     4.2470 cc         1 1EK       0.393300
     11 N11          6.0100     0.0060     3.9790 na         1 1EK      -0.256800
     12 C12          6.6250     0.0110     5.2010 cc         1 1EK       0.501800
     13 N13          5.6790     0.0070     6.1150 nd         1 1EK      -0.379000
     14 N14          4.5230     0.0030     5.5560 nd         1 1EK      -0.305000
     15 S15          8.3620     0.0170     5.4960 ss         1 1EK      -0.230400
     16 C16          8.3740     0.0190     7.3070 c3         1 1EK      -0.095300
     17 C17          9.7990     0.0250     7.8000 c          1 1EK       0.903600
     18 O18         10.0530     0.0280     9.1180 o          1 1EK      -0.825800
     19 O19         10.7120     0.0280     7.0080 o          1 1EK      -0.825800
     20 C20          6.6250     0.0080     2.7200 ca         1 1EK      -0.005200
     21 C21          7.3820     1.0990     2.3170 ca         1 1EK      -0.107000
     22 C22          7.9880     1.0960     1.0750 ca         1 1EK      -0.124500
     23 C23          7.8400     0.0080     0.2350 ca         1 1EK      -0.124000
     24 C24          7.0860    -1.0800     0.6340 ca         1 1EK      -0.124500
     25 C25          6.4830    -1.0860     1.8760 ca         1 1EK      -0.107000
     26 Cl2          1.6910     0.0050     5.2010 cl         1 1EK      -0.054400
     27 H1          -0.5390     0.0030    -0.9400 ha         1 1EK       0.127000
     28 H2           1.9150    -0.0050    -0.9390 ha         1 1EK       0.131000
     29 H3          -0.5950     0.0090     3.3160 ha         1 1EK       0.140000
     30 H4          -1.7840     0.0070     1.1890 ha         1 1EK       0.128000
     31 H5           7.8630     0.9020     7.6700 h1         1 1EK       0.072200
     32 H6           7.8690    -0.8670     7.6720 h1         1 1EK       0.072200
     33 H8           7.4980     1.9510     2.9750 ha         1 1EK       0.152500
     34 H9           8.5790     1.9470     0.7600 ha         1 1EK       0.133000
     35 H10          8.3140     0.0090    -0.7390 ha         1 1EK       0.126000
     36 H11          6.9740    -1.9310    -0.0260 ha         1 1EK       0.133000
     37 H12          5.8920    -1.9390     2.1880 ha         1 1EK       0.152500
@<TRIPOS>BOND
     1    19    17 1
     2    18    17 1
     3    17    16 1
     4    23    24 ar
     5    23    22 ar
     6    24    25 ar
     7    22    21 ar
     8    15    16 1
     9    15    12 1
    10    25    20 ar
    11    21    20 ar
    12    20    11 1
    13    12    11 1
    14    12    13 2
    15    11    10 1
    16    13    14 1
    17    10    14 2
    18    10     8 1
    19     8     9 2
    20     8     7 1
    21    26     9 1
    22     9     4 1
    23     7     3 1
    24     4     3 ar
    25     4     5 ar
    26     3     2 ar
    27     5     6 ar
    28     2     1 ar
    29     6     1 ar
    30     1    27 1
    31     2    28 1
    32     5    29 1
    33     6    30 1
    34    16    31 1
    35    16    32 1
    36    21    33 1
    37    22    34 1
    38    23    35 1
    39    24    36 1
    40    25    37 1
@<TRIPOS>SUBSTRUCTURE
     1 1EK         1 TEMP              0 ****  ****    0 ROOT
