@<TRIPOS>MOLECULE
molecule
   35    38     1     0     0
SMALL
bcc


@<TRIPOS>ATOM
      1 C1           0.0000     0.0000     0.0000 ca         1 1EL       0.077100
      2 O1          -0.6790     0.0060    -1.1780 oh         1 1EL      -0.518100
      3 C2           1.3900     0.0000     0.0000 ca         1 1EL      -0.122000
      4 C3           2.0900     0.0000     1.1870 ca         1 1EL      -0.141000
      5 C4           1.4090    -0.0000     2.4000 ca         1 1EL      -0.011200
      6 C5           0.0060    -0.0000     2.4010 cp         1 1EL      -0.064000
      7 C6          -0.6930    -0.0000     1.1980 ca         1 1EL      -0.104000
      8 N7           1.8460    -0.0010     3.7150 na         1 1EL      -0.184300
      9 C8           0.7710    -0.0020     4.5790 ca         1 1EL       0.042800
     10 C9          -0.4100    -0.0010     3.8160 cp         1 1EL      -0.112000
     11 C10          0.6910    -0.0040     5.9730 ca         1 1EL      -0.129300
     12 C11          1.9510    -0.0040     6.8000 c3         1 1EL      -0.039800
     13 C12         -0.5220    -0.0040     6.5830 ca         1 1EL      -0.012300
     14 C13         -1.7100    -0.0030     5.8330 ca         1 1EL      -0.239600
     15 C14         -1.6500    -0.0000     4.4430 ca         1 1EL       0.058700
     16 C15         -2.9160     0.0020     3.6260 c3         1 1EL      -0.054800
     17 C16         -0.6530    -0.0060     8.0890 c3         1 1EL      -0.161400
     18 C17         -2.0520    -0.0070     8.6610 c2         1 1EL       0.531200
     19 N18         -3.0790    -0.0070     7.8790 ne         1 1EL      -0.670100
     20 C19         -3.0030    -0.0040     6.5410 c          1 1EL       0.726100
     21 O19         -4.0310    -0.0030     5.8920 o          1 1EL      -0.515100
     22 HO1         -0.8100     0.8960    -1.4600 ho         1 1EL       0.417000
     23 H2           1.9270    -0.0000    -0.9410 ha         1 1EL       0.144000
     24 H3           3.1740    -0.0000     1.1760 ha         1 1EL       0.132000
     25 H6          -1.7730    -0.0950     1.1990 ha         1 1EL       0.153000
     26 H11          1.9730    -0.8880     7.4250 hc         1 1EL       0.040367
     27 H11A         2.8130    -0.0040     6.1440 hc         1 1EL       0.040367
     28 H11B         1.9730     0.8810     7.4250 hc         1 1EL       0.040367
     29 H15         -3.4230    -0.9480     3.7440 hc         1 1EL       0.060033
     30 H15A        -3.5630     0.8020     3.9650 hc         1 1EL       0.060033
     31 H15B        -2.6710     0.1530     2.5820 hc         1 1EL       0.060033
     32 H16         -0.1420    -0.8850     8.4640 hc         1 1EL       0.077700
     33 H16A        -0.1420     0.8710     8.4670 hc         1 1EL       0.077700
     34 H17         -2.1950    -0.0100     9.7350 h4         1 1EL       0.039800
     35 HN7          2.8060    -0.0010     3.9980 hn         1 1EL       0.301700
@<TRIPOS>BOND
     1     2     1 1   
     2     3     1 ar  
     3     1     7 ar  
     4     2    22 1   
     5     3     4 ar  
     6     3    23 1   
     7     4     5 ar  
     8     4    24 1   
     9     5     6 ar  
    10     5     8 1   
    11     7     6 ar  
    12     6    10 1   
    13     7    25 1   
    14     8     9 1   
    15    10     9 ar  
    16     9    11 ar  
    17    10    15 ar  
    18    11    12 1   
    19    11    13 ar  
    20    12    26 1   
    21    12    27 1   
    22    12    28 1   
    23    14    13 ar  
    24    13    17 1   
    25    15    14 ar  
    26    14    20 1   
    27    16    15 1   
    28    16    29 1   
    29    16    30 1   
    30    16    31 1   
    31    17    18 1   
    32    17    32 1   
    33    17    33 1   
    34    19    18 2   
    35    18    34 1   
    36    20    19 1   
    37    21    20 2   
    38     8    35 1   
@<TRIPOS>SUBSTRUCTURE
     1 1EL         1 TEMP              0 ****  ****    0 ROOT
