@<TRIPOS>MOLECULE
1EL
   35    38     1     0     0
SMALL
bcc


@<TRIPOS>ATOM
      1 C1           0.1500    -0.0650    -0.0760 ca         1 1EL       0.102100
      2 O1          -0.3870    -0.0420    -1.3460 oh         1 1EL      -0.498100
      3 C2           1.5560    -0.1030    -0.0100 ca         1 1EL      -0.129000
      4 C3           2.1970    -0.1180     1.2220 ca         1 1EL      -0.118000
      5 C4           1.4140    -0.1000     2.3790 ca         1 1EL      -0.055200
      6 C5          -0.0300    -0.0770     2.3130 cp         1 1EL      -0.026000
      7 C6          -0.6530    -0.0480     1.0730 ca         1 1EL      -0.166000
      8 N7           1.8240    -0.1450     3.7280 na         1 1EL      -0.176300
      9 C8           0.6750    -0.0330     4.5260 ca         1 1EL       0.029800
     10 C9          -0.5060    -0.0530     3.6900 cp         1 1EL      -0.103000
     11 C10          0.5810     0.0320     5.9250 ca         1 1EL      -0.127300
     12 C11          1.7840     0.0420     6.7870 c3         1 1EL      -0.042800
     13 C12         -0.7040     0.0730     6.4800 ca         1 1EL      -0.013300
     14 C13         -1.8620     0.0640     5.6720 ca         1 1EL      -0.212600
     15 C14         -1.7740    -0.0450     4.2720 ca         1 1EL       0.059700
     16 C15         -2.9870    -0.1710     3.4320 c3         1 1EL      -0.068800
     17 C16         -0.8290     0.1160     7.9660 c3         1 1EL      -0.154400
     18 C17         -2.2220    -0.1530     8.4400 c2         1 1EL       0.480200
     19 N18         -3.2920    -0.1230     7.7290 ne         1 1EL      -0.623100
     20 C19         -3.1880     0.2060     6.3370 c          1 1EL       0.696100
     21 O19         -4.2020     0.6030     5.7460 o          1 1EL      -0.511100
     22 HO1         -1.3510    -0.0160    -1.2620 ho         1 1EL       0.419000
     23 H2           2.1350    -0.1150    -0.9450 ha         1 1EL       0.154000
     24 H3           3.2940    -0.1430     1.2780 ha         1 1EL       0.141000
     25 H6          -1.7460    -0.0000     0.9800 ha         1 1EL       0.144000
     26 H11          1.9330    -0.9670     7.2510 hc         1 1EL       0.042700
     27 H11A         1.6730     0.7920     7.6110 hc         1 1EL       0.042700
     28 H11B         2.7100     0.3010     6.2190 hc         1 1EL       0.042700
     29 H15         -3.3830     0.8460     3.1810 hc         1 1EL       0.061367
     30 H15A        -3.7960    -0.7260     3.9720 hc         1 1EL       0.061367
     31 H15B        -2.7640    -0.7250     2.4880 hc         1 1EL       0.061367
     32 H16         -0.1400    -0.6470     8.4240 hc         1 1EL       0.084200
     33 H16A        -0.5060     1.1270     8.3430 hc         1 1EL       0.084200
     34 H17         -2.3310    -0.4000     9.5160 h4         1 1EL       0.027800
     35 HN7          2.7170     0.1590     4.0240 hn         1 1EL       0.291700
@<TRIPOS>BOND
     1     1     2 1   
     2     1     3 ar  
     3     1     7 ar  
     4     2    22 1   
     5     3     4 ar  
     6     3    23 1   
     7     4     5 ar  
     8     4    24 1   
     9     5     6 ar  
    10     5     8 1   
    11     6     7 ar  
    12     6    10 1   
    13     7    25 1   
    14     8     9 1   
    15     8    35 1   
    16     9    10 ar  
    17     9    11 ar  
    18    10    15 ar  
    19    11    12 1   
    20    11    13 ar  
    21    12    26 1   
    22    12    27 1   
    23    12    28 1   
    24    13    14 ar  
    25    13    17 1   
    26    14    15 ar  
    27    14    20 1   
    28    15    16 1   
    29    16    29 1   
    30    16    30 1   
    31    16    31 1   
    32    17    18 1   
    33    17    32 1   
    34    17    33 1   
    35    18    19 2   
    36    18    34 1   
    37    19    20 1   
    38    20    21 2   
@<TRIPOS>SUBSTRUCTURE
     1 1EL         1 TEMP              0 ****  ****    0 ROOT
