@<TRIPOS>MOLECULE
1EM
   81    80     1     0     0
SMALL
bcc


@<TRIPOS>ATOM
      1 O11         0.3620    1.0980   -0.6110 o         1 1EM     -0.541000
      2 C11         1.3020    0.5600   -0.0230 c         1 1EM      0.637100
      3 C12         1.6720    0.6360    1.4270 c3        1 1EM     -0.126400
      4 C13         0.5110    1.1470    2.2530 c3        1 1EM     -0.083400
      5 C14         0.8960    1.2880    3.7100 c3        1 1EM     -0.077400
      6 C15        -0.2830    1.7660    4.5310 c3        1 1EM     -0.083400
      7 C16         0.0920    1.9500    5.9860 c3        1 1EM     -0.078400
      8 C17        -1.1100    2.3570    6.8110 c3        1 1EM     -0.084400
      9 C18        -0.7320    2.5980    8.2570 c3        1 1EM     -0.079400
     10 C19        -1.9370    2.9450    9.0920 c3        1 1EM     -0.097100
     11 O21         1.6950    1.3480   -4.7010 o         1 1EM     -0.538000
     12 C21         2.4200    2.0670   -4.0140 c         1 1EM      0.639100
     13 C22         2.6100    3.5520   -4.0870 c3        1 1EM     -0.125400
     14 C23         1.4230    4.2910   -3.5010 c3        1 1EM     -0.074400
     15 C24         1.3230    4.0780   -2.0070 c3        1 1EM     -0.090400
     16 C25         0.1620    4.8380   -1.4000 c3        1 1EM     -0.071400
     17 C26        -0.0370    4.4130    0.0390 c3        1 1EM     -0.088400
     18 C27        -1.1240    5.2080    0.7290 c3        1 1EM     -0.076400
     19 C28        -1.3050    4.7250    2.1520 c3        1 1EM     -0.081400
     20 C29        -2.3190    5.5560    2.9090 c3        1 1EM     -0.078400
     21 C30        -2.4290    5.0880    4.3440 c3        1 1EM     -0.081400
     22 C31        -3.4260    5.9140    5.1270 c3        1 1EM     -0.078400
     23 C32        -3.4760    5.4730    6.5740 c3        1 1EM     -0.082400
     24 C33        -4.4810    6.2810    7.3680 c3        1 1EM     -0.080400
     25 C34        -4.5110    5.8530    8.8120 c3        1 1EM     -0.094100
     26 C41         1.9350   -0.4090   -2.1380 c3        1 1EM      0.109400
     27 O41         2.1660   -0.2280   -0.7370 os        1 1EM     -0.445900
     28 C42         3.1550    0.0450   -2.9340 c3        1 1EM      0.092100
     29 O42         3.1980    1.4780   -3.0500 os        1 1EM     -0.452900
     30 C43         4.4720   -0.3420   -2.2560 c3        1 1EM      0.138400
     31 O43         5.5790   -0.0460   -3.0790 oh        1 1EM     -0.596800
     32 H121        1.9950   -0.3790    1.7780 hc        1 1EM      0.079700
     33 H122        2.5550    1.3240    1.5200 hc        1 1EM      0.079700
     34 H131       -0.3560    0.4410    2.1550 hc        1 1EM      0.059700
     35 H132        0.1720    2.1400    1.8500 hc        1 1EM      0.059700
     36 H141        1.7440    2.0150    3.8090 hc        1 1EM      0.040700
     37 H142        1.2560    0.3020    4.1060 hc        1 1EM      0.040700
     38 H151       -1.1210    1.0240    4.4500 hc        1 1EM      0.044700
     39 H152       -0.6630    2.7390    4.1160 hc        1 1EM      0.044700
     40 H161        0.8920    2.7310    6.0720 hc        1 1EM      0.039700
     41 H162        0.5190    0.9940    6.3900 hc        1 1EM      0.039700
     42 H171       -1.5660    3.2910    6.3820 hc        1 1EM      0.042200
     43 H172       -1.8920    1.5540    6.7570 hc        1 1EM      0.042200
     44 H181        0.0190    3.4300    8.3130 hc        1 1EM      0.037700
     45 H182       -0.2380    1.6800    8.6730 hc        1 1EM      0.037700
     46 H191       -2.6690    2.1010    9.0980 hc        1 1EM      0.034367
     47 H192       -2.4540    3.8510    8.6850 hc        1 1EM      0.034367
     48 H193       -1.6330    3.1550   10.1460 hc        1 1EM      0.034367
     49 H221        2.7290    3.8200   -5.1700 hc        1 1EM      0.076200
     50 H222        3.5490    3.8380   -3.5430 hc        1 1EM      0.076200
     51 H231        0.4800    3.9430   -3.9990 hc        1 1EM      0.055200
     52 H232        1.5400    5.3850   -3.7220 hc        1 1EM      0.055200
     53 H241        1.2000    2.9780   -1.7990 hc        1 1EM      0.050200
     54 H242        2.2780    4.4020   -1.5150 hc        1 1EM      0.050200
     55 H251       -0.7740    4.6350   -1.9840 hc        1 1EM      0.038700
     56 H252        0.3570    5.9400   -1.4550 hc        1 1EM      0.038700
     57 H261       -0.2950    3.3190    0.0640 hc        1 1EM      0.047200
     58 H262        0.9270    4.5390    0.6010 hc        1 1EM      0.047200
     59 H271       -0.8570    6.2980    0.7290 hc        1 1EM      0.039200
     60 H272       -2.0880    5.1030    0.1670 hc        1 1EM      0.039200
     61 H281       -0.3190    4.7610    2.6880 hc        1 1EM      0.038700
     62 H282       -1.6330    3.6510    2.1430 hc        1 1EM      0.038700
     63 H291       -2.0160    6.6360    2.8860 hc        1 1EM      0.040700
     64 H292       -3.3190    5.4820    2.4070 hc        1 1EM      0.040700
     65 H301       -2.7370    4.0080    4.3650 hc        1 1EM      0.039200
     66 H302       -1.4220    5.1490    4.8360 hc        1 1EM      0.039200
     67 H311       -4.4440    5.8150    4.6660 hc        1 1EM      0.040200
     68 H312       -3.1430    6.9980    5.0740 hc        1 1EM      0.040200
     69 H321       -3.7440    4.3840    6.6270 hc        1 1EM      0.040200
     70 H322       -2.4580    5.5820    7.0350 hc        1 1EM      0.040200
     71 H331       -5.5000    6.1590    6.9150 hc        1 1EM      0.038700
     72 H332       -4.2200    7.3700    7.3020 hc        1 1EM      0.038700
     73 H341       -4.7830    4.7730    8.8970 hc        1 1EM      0.033033
     74 H342       -3.5100    5.9980    9.2870 hc        1 1EM      0.033033
     75 H343       -5.2620    6.4520    9.3800 hc        1 1EM      0.033033
     76 H411        1.7940   -1.5160   -2.2680 h1        1 1EM      0.082700
     77 H412        1.0240    0.1450   -2.4870 h1        1 1EM      0.082700
     78 H42         3.0940   -0.4050   -3.9660 h1        1 1EM      0.089700
     79 H431        4.5610    0.1810   -1.2670 h1        1 1EM      0.063200
     80 H432        4.5000   -1.4540   -2.1060 h1        1 1EM      0.063200
     81 HO43        5.5740    0.9090   -3.2250 ho        1 1EM      0.408000
@<TRIPOS>BOND
     1    1    2 2   
     2    2    3 1   
     3    2   27 1   
     4    3    4 1   
     5    3   32 1   
     6    3   33 1   
     7    4    5 1   
     8    4   34 1   
     9    4   35 1   
    10    5    6 1   
    11    5   36 1   
    12    5   37 1   
    13    6    7 1   
    14    6   38 1   
    15    6   39 1   
    16    7    8 1   
    17    7   40 1   
    18    7   41 1   
    19    8    9 1   
    20    8   42 1   
    21    8   43 1   
    22    9   10 1   
    23    9   44 1   
    24    9   45 1   
    25   10   46 1   
    26   10   47 1   
    27   10   48 1   
    28   11   12 2   
    29   12   13 1   
    30   12   29 1   
    31   13   14 1   
    32   13   49 1   
    33   13   50 1   
    34   14   15 1   
    35   14   51 1   
    36   14   52 1   
    37   15   16 1   
    38   15   53 1   
    39   15   54 1   
    40   16   17 1   
    41   16   55 1   
    42   16   56 1   
    43   17   18 1   
    44   17   57 1   
    45   17   58 1   
    46   18   19 1   
    47   18   59 1   
    48   18   60 1   
    49   19   20 1   
    50   19   61 1   
    51   19   62 1   
    52   20   21 1   
    53   20   63 1   
    54   20   64 1   
    55   21   22 1   
    56   21   65 1   
    57   21   66 1   
    58   22   23 1   
    59   22   67 1   
    60   22   68 1   
    61   23   24 1   
    62   23   69 1   
    63   23   70 1   
    64   24   25 1   
    65   24   71 1   
    66   24   72 1   
    67   25   73 1   
    68   25   74 1   
    69   25   75 1   
    70   26   27 1   
    71   26   28 1   
    72   26   76 1   
    73   26   77 1   
    74   28   29 1   
    75   28   30 1   
    76   28   78 1   
    77   30   31 1   
    78   30   79 1   
    79   30   80 1   
    80   31   81 1   
@<TRIPOS>SUBSTRUCTURE
     1 1EM         1 TEMP              0 ****  ****    0 ROOT
