@<TRIPOS>MOLECULE
1EM
   81    80     1     0     0
SMALL
bcc


@<TRIPOS>ATOM
      1 O11          0.1390    -1.0660    -0.0770 o          1 1EM      -0.532000
      2 C11          1.2080    -0.4800     0.0920 c          1 1EM       0.636100
      3 C12          1.8930    -0.1260     1.3750 c3         1 1EM      -0.128400
      4 C13          2.1590     1.3610     1.4830 c3         1 1EM      -0.076400
      5 C14          2.9320     1.6760     2.7460 c3         1 1EM      -0.080400
      6 C15          3.1550     3.1660     2.8920 c3         1 1EM      -0.078400
      7 C16          3.9390     3.4820     4.1480 c3         1 1EM      -0.079400
      8 C17          4.1610     4.9720     4.2950 c3         1 1EM      -0.079400
      9 C18          4.9450     5.2900     5.5510 c3         1 1EM      -0.080400
     10 C19          5.1690     6.7720     5.7020 c3         1 1EM      -0.093100
     11 O21          5.4960    -1.2820    -3.0610 o          1 1EM      -0.490000
     12 C21          4.6370    -0.4250    -2.8490 c          1 1EM       0.637100
     13 C22          4.7740     0.8270    -2.0430 c3         1 1EM      -0.169400
     14 C23          6.0530     0.8540    -1.2320 c3         1 1EM      -0.072400
     15 C24          5.9490    -0.0070     0.0100 c3         1 1EM      -0.082400
     16 C25          7.2100     0.0430     0.8490 c3         1 1EM      -0.075400
     17 C26          8.3160    -0.8470     0.3200 c3         1 1EM      -0.079400
     18 C27          8.1410    -2.3050     0.6950 c3         1 1EM      -0.078400
     19 C28          8.5670    -2.6170     2.1150 c3         1 1EM      -0.079400
     20 C29         10.0690    -2.7520     2.2500 c3         1 1EM      -0.079400
     21 C30         10.4640    -3.0580     3.6790 c3         1 1EM      -0.078400
     22 C31         11.9640    -3.1830     3.8510 c3         1 1EM      -0.077400
     23 C32         12.4980    -4.5020     3.3340 c3         1 1EM      -0.079400
     24 C33         13.9940    -4.6070     3.5400 c3         1 1EM      -0.080400
     25 C34         14.5320    -5.9180     3.0270 c3         1 1EM      -0.092100
     26 C41          1.3850    -0.5000    -2.2900 c3         1 1EM       0.113400
     27 O41          1.9130    -0.0970    -1.0200 os         1 1EM      -0.456900
     28 C42          2.3130     0.0910    -3.3540 c3         1 1EM       0.102100
     29 O42          3.4610    -0.7440    -3.4970 os         1 1EM      -0.425900
     30 C43          1.6170     0.0720    -4.7260 c3         1 1EM       0.122400
     31 O43          0.8010     1.2120    -4.8830 oh         1 1EM      -0.588800
     32 H121         2.8620    -0.6920     1.4180 hc         1 1EM       0.081700
     33 H122         1.2430    -0.4720     2.2230 hc         1 1EM       0.081700
     34 H131         2.7440     1.7000     0.5860 hc         1 1EM       0.052700
     35 H132         1.1880     1.9210     1.4820 hc         1 1EM       0.052700
     36 H141         2.3720     1.2900     3.6380 hc         1 1EM       0.044200
     37 H142         3.9230     1.1480     2.7200 hc         1 1EM       0.044200
     38 H151         2.1650     3.6930     2.9240 hc         1 1EM       0.041700
     39 H152         3.7070     3.5540     1.9960 hc         1 1EM       0.041700
     40 H161         4.9290     2.9550     4.1160 hc         1 1EM       0.040700
     41 H162         3.3860     3.0930     5.0440 hc         1 1EM       0.040700
     42 H171         3.1710     5.4990     4.3280 hc         1 1EM       0.040200
     43 H172         4.7120     5.3610     3.3990 hc         1 1EM       0.040200
     44 H181         4.3930     4.8980     6.4460 hc         1 1EM       0.038700
     45 H182         5.9340     4.7610     5.5170 hc         1 1EM       0.038700
     46 H191         5.7400     7.1760     4.8310 hc         1 1EM       0.033033
     47 H192         4.1940     7.3140     5.7630 hc         1 1EM       0.033033
     48 H193         5.7490     6.9840     6.6330 hc         1 1EM       0.033033
     49 H221         4.7620     1.6960    -2.7560 hc         1 1EM       0.081200
     50 H222         3.8880     0.9240    -1.3550 hc         1 1EM       0.081200
     51 H231         6.9080     0.4980    -1.8670 hc         1 1EM       0.056200
     52 H232         6.2660     1.9150    -0.9370 hc         1 1EM       0.056200
     53 H241         5.7360    -1.0660    -0.2960 hc         1 1EM       0.043200
     54 H242         5.0810     0.3440     0.6320 hc         1 1EM       0.043200
     55 H251         6.9590    -0.2620     1.9000 hc         1 1EM       0.037700
     56 H252         7.5820     1.1020     0.8930 hc         1 1EM       0.037700
     57 H261         8.3570    -0.7620    -0.7980 hc         1 1EM       0.043700
     58 H262         9.3000    -0.4790     0.7170 hc         1 1EM       0.043700
     59 H271         7.0640    -2.5920     0.5650 hc         1 1EM       0.042700
     60 H272         8.7370    -2.9370    -0.0160 hc         1 1EM       0.042700
     61 H281         8.1990    -1.8150     2.8080 hc         1 1EM       0.037700
     62 H282         8.0850    -3.5790     2.4370 hc         1 1EM       0.037700
     63 H291        10.4350    -3.5690     1.5730 hc         1 1EM       0.040700
     64 H292        10.5660    -1.8020     1.9190 hc         1 1EM       0.040700
     65 H301         9.9670    -4.0080     4.0110 hc         1 1EM       0.037700
     66 H302        10.0890    -2.2370     4.3460 hc         1 1EM       0.037700
     67 H311        12.2140    -3.0890     4.9410 hc         1 1EM       0.038200
     68 H312        12.4760    -2.3370     3.3200 hc         1 1EM       0.038200
     69 H321        12.2620    -4.6040     2.2420 hc         1 1EM       0.040700
     70 H322        11.9870    -5.3490     3.8630 hc         1 1EM       0.040700
     71 H331        14.2300    -4.5050     4.6320 hc         1 1EM       0.037700
     72 H332        14.5050    -3.7580     3.0120 hc         1 1EM       0.037700
     73 H341        14.3290    -6.0270     1.9340 hc         1 1EM       0.032367
     74 H342        14.0530    -6.7760     3.5580 hc         1 1EM       0.032367
     75 H343        15.6360    -5.9750     3.1880 hc         1 1EM       0.032367
     76 H411         1.3670    -1.6200    -2.3410 h1         1 1EM       0.067200
     77 H412         0.3450    -0.0970    -2.4030 h1         1 1EM       0.067200
     78 H42          2.5880     1.1480    -3.0920 h1         1 1EM       0.075700
     79 H431         1.0280    -0.8730    -4.8520 h1         1 1EM       0.069200
     80 H432         2.3860     0.1480    -5.5420 h1         1 1EM       0.069200
     81 HO43         0.0460     1.1140    -4.2900 ho         1 1EM       0.400000
@<TRIPOS>BOND
     1     1     2 2   
     2     2     3 1   
     3     2    27 1   
     4     3     4 1   
     5     3    32 1   
     6     3    33 1   
     7     4     5 1   
     8     4    34 1   
     9     4    35 1   
    10     5     6 1   
    11     5    36 1   
    12     5    37 1   
    13     6     7 1   
    14     6    38 1   
    15     6    39 1   
    16     7     8 1   
    17     7    40 1   
    18     7    41 1   
    19     8     9 1   
    20     8    42 1   
    21     8    43 1   
    22     9    10 1   
    23     9    44 1   
    24     9    45 1   
    25    10    46 1   
    26    10    47 1   
    27    10    48 1   
    28    11    12 2   
    29    12    13 1   
    30    12    29 1   
    31    13    14 1   
    32    13    49 1   
    33    13    50 1   
    34    14    15 1   
    35    14    51 1   
    36    14    52 1   
    37    15    16 1   
    38    15    53 1   
    39    15    54 1   
    40    16    17 1   
    41    16    55 1   
    42    16    56 1   
    43    17    18 1   
    44    17    57 1   
    45    17    58 1   
    46    18    19 1   
    47    18    59 1   
    48    18    60 1   
    49    19    20 1   
    50    19    61 1   
    51    19    62 1   
    52    20    21 1   
    53    20    63 1   
    54    20    64 1   
    55    21    22 1   
    56    21    65 1   
    57    21    66 1   
    58    22    23 1   
    59    22    67 1   
    60    22    68 1   
    61    23    24 1   
    62    23    69 1   
    63    23    70 1   
    64    24    25 1   
    65    24    71 1   
    66    24    72 1   
    67    25    73 1   
    68    25    74 1   
    69    25    75 1   
    70    26    27 1   
    71    26    28 1   
    72    26    76 1   
    73    26    77 1   
    74    28    29 1   
    75    28    30 1   
    76    28    78 1   
    77    30    31 1   
    78    30    79 1   
    79    30    80 1   
    80    31    81 1   
@<TRIPOS>SUBSTRUCTURE
     1 1EM         1 TEMP              0 ****  ****    0 ROOT
