@<TRIPOS>MOLECULE
molecule
   81    80     1     0     0
SMALL
bcc


@<TRIPOS>ATOM
      1 O11          0.0000     0.0000     0.0000 o          1 1EM      -0.522000
      2 C11          1.2240     0.0000     0.0000 c          1 1EM       0.635100
      3 C12          2.0620     0.0000     1.2550 c3         1 1EM      -0.137400
      4 C13          1.3490     0.6580     2.4330 c3         1 1EM      -0.074400
      5 C14          2.1940     0.6410     3.7110 c3         1 1EM      -0.076400
      6 C15          1.4400     1.2810     4.8800 c3         1 1EM      -0.077400
      7 C16          2.2330     1.2800     6.1910 c3         1 1EM      -0.078400
      8 C17          1.4700     1.8970     7.3650 c3         1 1EM      -0.077400
      9 C18          2.3330     1.9360     8.6260 c3         1 1EM      -0.082400
     10 C19          1.5940     2.5830     9.7870 c3         1 1EM      -0.090100
     11 O21          1.5060     2.5660    -4.0620 o          1 1EM      -0.523000
     12 C21          2.5370     2.3470    -3.4400 c          1 1EM       0.642100
     13 C22          3.3070     3.3790    -2.6460 c3         1 1EM      -0.139400
     14 C23          2.4250     4.4840    -2.0610 c3         1 1EM      -0.072400
     15 C24          1.4200     4.0000    -1.0080 c3         1 1EM      -0.081400
     16 C25          0.5190     5.1010    -0.4500 c3         1 1EM      -0.075400
     17 C26         -0.4760     4.5400     0.5690 c3         1 1EM      -0.078400
     18 C27         -1.3550     5.6470     1.1540 c3         1 1EM      -0.078400
     19 C28         -2.3280     5.0910     2.1980 c3         1 1EM      -0.077400
     20 C29         -3.2290     6.1950     2.7580 c3         1 1EM      -0.078400
     21 C30         -4.2450     5.6880     3.7860 c3         1 1EM      -0.078400
     22 C31         -5.0960     6.8010     4.4000 c3         1 1EM      -0.077400
     23 C32         -6.0410     6.2490     5.4700 c3         1 1EM      -0.078400
     24 C33         -6.9150     7.3540     6.0630 c3         1 1EM      -0.083400
     25 C34         -7.8800     6.8050     7.1010 c3         1 1EM      -0.090100
     26 C41          1.3510    -0.0070    -2.3600 c3         1 1EM       0.096400
     27 O41          2.0260    -0.0040    -1.1060 os         1 1EM      -0.419900
     28 C42          2.3680    -0.0120    -3.4960 c3         1 1EM       0.152100
     29 O42          3.1930     1.1520    -3.3770 os         1 1EM      -0.408900
     30 C43          3.2700    -1.2370    -3.4310 c3         1 1EM       0.146400
     31 O43          4.1780    -1.2010    -4.5280 oh         1 1EM      -0.599800
     32 H121         2.9830     0.5340     1.0600 hc         1 1EM       0.072200
     33 H122         2.2990    -1.0240     1.5170 hc         1 1EM       0.072200
     34 H131         0.4210     0.1320     2.6190 hc         1 1EM       0.054200
     35 H132         1.1240     1.6860     2.1760 hc         1 1EM       0.054200
     36 H141         2.4350    -0.3850     3.9640 hc         1 1EM       0.040200
     37 H142         3.1120     1.1890     3.5380 hc         1 1EM       0.040200
     38 H151         0.5150     0.7390     5.0340 hc         1 1EM       0.041200
     39 H152         1.2030     2.3050     4.6190 hc         1 1EM       0.041200
     40 H161         2.4860     0.2570     6.4410 hc         1 1EM       0.037700
     41 H162         3.1490     1.8380     6.0420 hc         1 1EM       0.037700
     42 H171         1.1750     2.9060     7.1050 hc         1 1EM       0.040700
     43 H172         0.5830     1.3070     7.5610 hc         1 1EM       0.040700
     44 H181         3.2340     2.5020     8.4210 hc         1 1EM       0.038700
     45 H182         2.6060     0.9240     8.9000 hc         1 1EM       0.038700
     46 H191         2.2310     2.5850    10.6640 hc         1 1EM       0.033700
     47 H192         1.3340     3.6020     9.5270 hc         1 1EM       0.033700
     48 H193         0.6920     2.0220     9.9980 hc         1 1EM       0.033700
     49 H221         4.0460     3.8330    -3.2940 hc         1 1EM       0.074200
     50 H222         3.8190     2.8780    -1.8330 hc         1 1EM       0.074200
     51 H231         1.8760     4.9490    -2.8710 hc         1 1EM       0.051700
     52 H232         3.0660     5.2290    -1.6060 hc         1 1EM       0.051700
     53 H241         1.9690     3.5560    -0.1870 hc         1 1EM       0.038700
     54 H242         0.7930     3.2380    -1.4560 hc         1 1EM       0.038700
     55 H251        -0.0280     5.5590    -1.2650 hc         1 1EM       0.040700
     56 H252         1.1340     5.8520     0.0310 hc         1 1EM       0.040700
     57 H261         0.0710     4.0600     1.3720 hc         1 1EM       0.042200
     58 H262        -1.1060     3.8060     0.0820 hc         1 1EM       0.042200
     59 H271        -0.7230     6.3930     1.6210 hc         1 1EM       0.039700
     60 H272        -1.9200     6.1110     0.3550 hc         1 1EM       0.039700
     61 H281        -2.9440     4.3290     1.7380 hc         1 1EM       0.040700
     62 H282        -1.7620     4.6490     3.0100 hc         1 1EM       0.040700
     63 H291        -3.7660     6.6530     1.9360 hc         1 1EM       0.037700
     64 H292        -2.6060     6.9460     3.2280 hc         1 1EM       0.037700
     65 H301        -3.7110     5.1810     4.5810 hc         1 1EM       0.038200
     66 H302        -4.9020     4.9760     3.3010 hc         1 1EM       0.038200
     67 H311        -4.4430     7.5390     4.8500 hc         1 1EM       0.039200
     68 H312        -5.6800     7.2730     3.6190 hc         1 1EM       0.039200
     69 H321        -6.6780     5.4940     5.0250 hc         1 1EM       0.039200
     70 H322        -5.4560     5.7980     6.2610 hc         1 1EM       0.039200
     71 H331        -7.4820     7.8230     5.2670 hc         1 1EM       0.038200
     72 H332        -6.2790     8.0970     6.5290 hc         1 1EM       0.038200
     73 H341        -7.3200     6.3350     7.9010 hc         1 1EM       0.032700
     74 H342        -8.4760     7.6140     7.5040 hc         1 1EM       0.032700
     75 H343        -8.5300     6.0730     6.6380 hc         1 1EM       0.032700
     76 H411         0.7300     0.8770    -2.4370 h1         1 1EM       0.065200
     77 H412         0.7280    -0.8910    -2.4320 h1         1 1EM       0.065200
     78 H42          1.8500     0.0070    -4.4470 h1         1 1EM       0.084700
     79 H431         2.6680    -2.1350    -3.4880 h1         1 1EM       0.038200
     80 H432         3.8250    -1.2300    -2.5000 h1         1 1EM       0.038200
     81 HO43         4.6660    -2.0080    -4.5580 ho         1 1EM       0.405000
@<TRIPOS>BOND
     1     1     2 2   
     2     2     3 1   
     3     2    27 1   
     4     3     4 1   
     5     3    32 1   
     6     3    33 1   
     7     4     5 1   
     8     4    34 1   
     9     4    35 1   
    10     5     6 1   
    11     5    36 1   
    12     5    37 1   
    13     6     7 1   
    14     6    38 1   
    15     6    39 1   
    16     7     8 1   
    17     7    40 1   
    18     7    41 1   
    19     8     9 1   
    20     8    42 1   
    21     8    43 1   
    22     9    10 1   
    23     9    44 1   
    24     9    45 1   
    25    10    46 1   
    26    10    47 1   
    27    10    48 1   
    28    11    12 2   
    29    12    13 1   
    30    12    29 1   
    31    13    14 1   
    32    13    49 1   
    33    13    50 1   
    34    14    15 1   
    35    14    51 1   
    36    14    52 1   
    37    15    16 1   
    38    15    53 1   
    39    15    54 1   
    40    16    17 1   
    41    16    55 1   
    42    16    56 1   
    43    17    18 1   
    44    17    57 1   
    45    17    58 1   
    46    18    19 1   
    47    18    59 1   
    48    18    60 1   
    49    19    20 1   
    50    19    61 1   
    51    19    62 1   
    52    20    21 1   
    53    20    63 1   
    54    20    64 1   
    55    21    22 1   
    56    21    65 1   
    57    21    66 1   
    58    22    23 1   
    59    22    67 1   
    60    22    68 1   
    61    23    24 1   
    62    23    69 1   
    63    23    70 1   
    64    24    25 1   
    65    24    71 1   
    66    24    72 1   
    67    25    73 1   
    68    25    74 1   
    69    25    75 1   
    70    26    27 1   
    71    26    28 1   
    72    26    76 1   
    73    26    77 1   
    74    28    29 1   
    75    28    30 1   
    76    28    78 1   
    77    30    31 1   
    78    30    79 1   
    79    30    80 1   
    80    31    81 1   
@<TRIPOS>SUBSTRUCTURE
     1 1EM         1 TEMP              0 ****  ****    0 ROOT
