@<TRIPOS>MOLECULE
1EN
   42    46     1     0     0
SMALL
bcc


@<TRIPOS>ATOM
      1 C1          0.2560    0.6120   -0.1230 cc        1 1EN     -0.132000
      2 C2          1.6190    0.4560   -0.0460 cd        1 1EN     -0.089300
      3 N3          2.1890    0.0070    1.1270 na        1 1EN     -0.044200
      4 C4          1.3870   -0.2780    2.2760 cd        1 1EN     -0.119300
      5 C5         -0.0350   -0.1040    2.1740 cd        1 1EN      0.163100
      6 C6         -0.5880    0.3240    0.9860 cc        1 1EN     -0.155000
      7 C7          3.5080   -0.2460    1.5430 cd        1 1EN      0.318800
      8 N8          3.4580   -0.6570    2.8590 nc        1 1EN     -0.338700
      9 N9          2.2300   -0.6800    3.2930 nc        1 1EN     -0.068000
     10 C10         4.7030   -0.0980    0.6940 cx        1 1EN     -0.089000
     11 C11         4.8850    1.2660    0.1530 ca        1 1EN     -0.060300
     12 C12         5.9360   -0.8970    1.0740 cx        1 1EN     -0.100900
     13 C13         5.1360   -1.3030   -0.1210 cx        1 1EN     -0.100900
     14 C14         5.1800    2.3220    1.0250 ca        1 1EN     -0.112000
     15 C15         5.3600    3.6140    0.5350 ca        1 1EN     -0.124500
     16 C16         5.2450    3.8540   -0.8380 ca        1 1EN      0.020400
     17 C17         4.9490    2.8080   -1.7180 ca        1 1EN     -0.124500
     18 C18         4.7690    1.5200   -1.2190 ca        1 1EN     -0.112000
     19 CL19        5.4650    5.4270   -1.4420 cl        1 1EN     -0.089400
     20 O20        -0.8810   -0.2540    3.2580 os        1 1EN     -0.226200
     21 C21        -0.5530   -1.2550    4.1740 ca        1 1EN      0.058100
     22 C22        -0.3680   -0.8680    5.5210 ca        1 1EN      0.149900
     23 C23        -0.1750   -1.8670    6.4940 ca        1 1EN     -0.155000
     24 C24        -0.1560   -3.2060    6.1170 ca        1 1EN     -0.104000
     25 C25        -0.3320   -3.5750    4.7830 ca        1 1EN     -0.131000
     26 C26        -0.5320   -2.6030    3.8060 ca        1 1EN     -0.114000
     27 F27        -0.3920    0.4340    5.8760 f         1 1EN     -0.122900
     28 H1         -0.1990    0.9690   -1.0590 ha        1 1EN      0.158000
     29 H2          2.3170    0.6820   -0.8710 h4        1 1EN      0.177000
     30 H3         -1.6750    0.4630    0.8970 ha        1 1EN      0.164000
     31 H4          5.9100   -1.5220    1.9850 hc        1 1EN      0.084700
     32 H5          6.9220   -0.4190    0.9260 hc        1 1EN      0.084700
     33 H6          4.5230   -2.2200   -0.0710 hc        1 1EN      0.084700
     34 H7          5.5530   -1.1350   -1.1310 hc        1 1EN      0.084700
     35 H8          5.2670    2.1280    2.1060 ha        1 1EN      0.145000
     36 H9          5.5910    4.4380    1.2270 ha        1 1EN      0.150000
     37 H10         4.8610    2.9980   -2.7980 ha        1 1EN      0.150000
     38 H11         4.5400    0.6980   -1.9140 ha        1 1EN      0.145000
     39 H12        -0.0310   -1.5720    7.5430 ha        1 1EN      0.152000
     40 H13         0.0050   -3.9810    6.8830 ha        1 1EN      0.139000
     41 H14        -0.3120   -4.6380    4.4990 ha        1 1EN      0.139000
     42 H15        -0.6680   -2.8810    2.7510 ha        1 1EN      0.145000
@<TRIPOS>BOND
     1    1    2 2   
     2    1    6 1   
     3    1   28 1   
     4    2    3 1   
     5    2   29 1   
     6    3    4 1   
     7    3    7 1   
     8    4    5 1   
     9    4    9 2   
    10    5    6 2   
    11    5   20 1   
    12    6   30 1   
    13    7    8 2   
    14    7   10 1   
    15    8    9 1   
    16   10   11 1   
    17   10   12 1   
    18   10   13 1   
    19   11   14 ar  
    20   11   18 ar  
    21   12   13 1   
    22   12   31 1   
    23   12   32 1   
    24   13   33 1   
    25   13   34 1   
    26   14   15 ar  
    27   14   35 1   
    28   15   16 ar  
    29   15   36 1   
    30   16   17 ar  
    31   16   19 1   
    32   17   18 ar  
    33   17   37 1   
    34   18   38 1   
    35   20   21 1   
    36   21   22 ar  
    37   21   26 ar  
    38   22   23 ar  
    39   22   27 1   
    40   23   24 ar  
    41   23   39 1   
    42   24   25 ar  
    43   24   40 1   
    44   25   26 ar  
    45   25   41 1   
    46   26   42 1   
@<TRIPOS>SUBSTRUCTURE
     1 1EN         1 TEMP              0 ****  ****    0 ROOT
