@<TRIPOS>MOLECULE
molecule
   42    46     1     0     0
SMALL
bcc


@<TRIPOS>ATOM
      1 C1           0.0000     0.0000     0.0000 cc         1 1EN      -0.143000
      2 C2           1.3500     0.0000     0.0000 cd         1 1EN      -0.080300
      3 N3           2.0450     0.0000     1.1760 na         1 1EN      -0.042200
      4 C4           1.3820    -0.0000     2.3770 cd         1 1EN      -0.107300
      5 C5          -0.0310    -0.0010     2.3950 cd         1 1EN       0.155100
      6 C6          -0.7110     0.0050     1.2120 cc         1 1EN      -0.131000
      7 C7           3.3700     0.0010     1.4820 cd         1 1EN       0.326800
      8 N8           3.4730     0.0010     2.7870 nc         1 1EN      -0.334700
      9 N9           2.3040     0.0000     3.3240 nc         1 1EN      -0.074000
     10 C10          4.5120     0.0020     0.4990 cx         1 1EN      -0.089000
     11 C11          5.0040     1.3610     0.0730 ca         1 1EN      -0.056300
     12 C12          5.5480    -1.1190     0.6170 cx         1 1EN      -0.109900
     13 C13          4.5490    -1.1190    -0.5420 cx         1 1EN      -0.109900
     14 C14          5.4090     2.2780     1.0260 ca         1 1EN      -0.107500
     15 C15          5.8590     3.5250     0.6370 ca         1 1EN      -0.121500
     16 C16          5.9060     3.8560    -0.7060 ca         1 1EN       0.031400
     17 C17          5.5010     2.9380    -1.6580 ca         1 1EN      -0.121500
     18 C18          5.0550     1.6890    -1.2680 ca         1 1EN      -0.107500
     19 Cl19         6.4710     5.4230    -1.1950 cl         1 1EN      -0.106400
     20 O20         -0.7040    -0.0020     3.5750 os         1 1EN      -0.213200
     21 C21         -0.5180    -1.0540     4.4150 ca         1 1EN       0.098100
     22 C22         -1.0820    -1.0410     5.6850 ca         1 1EN       0.121900
     23 C23         -0.8910    -2.1130     6.5360 ca         1 1EN      -0.138000
     24 C24         -0.1400    -3.1990     6.1240 ca         1 1EN      -0.130000
     25 C25          0.4210    -3.2150     4.8610 ca         1 1EN      -0.106000
     26 C26          0.2290    -2.1480     4.0040 ca         1 1EN      -0.166000
     27 F27         -1.8150     0.0210     6.0870 f          1 1EN      -0.130900
     28 H1          -0.5380     0.0050    -0.9400 ha         1 1EN       0.159000
     29 H2           1.8870    -0.0040    -0.9410 h4         1 1EN       0.171000
     30 H3          -1.7940     0.0050     1.2070 ha         1 1EN       0.163000
     31 H4           5.3600    -1.8490     1.3960 hc         1 1EN       0.086450
     32 H5           6.5640    -0.8460     0.3580 hc         1 1EN       0.086450
     33 H6           4.9550    -0.8470    -1.5080 hc         1 1EN       0.086450
     34 H7           3.7520    -1.8490    -0.4710 hc         1 1EN       0.086450
     35 H8           5.3720     2.0190     2.0770 ha         1 1EN       0.146500
     36 H9           6.1770     4.2440     1.3830 ha         1 1EN       0.147500
     37 H10          5.5390     3.1960    -2.7100 ha         1 1EN       0.147500
     38 H11          4.7380     0.9700    -2.0140 ha         1 1EN       0.146500
     39 H12         -1.3300    -2.1030     7.5270 ha         1 1EN       0.151000
     40 H13          0.0100    -4.0380     6.7930 ha         1 1EN       0.138000
     41 H14          1.0070    -4.0680     4.5400 ha         1 1EN       0.136000
     42 H15          0.6690    -2.1620     3.0140 ha         1 1EN       0.143000
@<TRIPOS>BOND
     1    24    25 ar  
     2    24    23 ar  
     3    25    26 ar  
     4    23    22 ar  
     5    26    21 ar  
     6    22    21 ar  
     7    22    27 1   
     8    21    20 1   
     9    20     5 1   
    10     6     5 2   
    11     6     1 1   
    12     5     4 1   
    13     1     2 2   
    14    19    16 1   
    15    17    16 ar  
    16    17    18 ar  
    17     4     3 1   
    18     4     9 2   
    19     2     3 1   
    20    16    15 ar  
    21     3     7 1   
    22     9     8 1   
    23    18    11 ar  
    24    15    14 ar  
    25     7     8 2   
    26     7    10 1   
    27    11    14 ar  
    28    11    10 1   
    29    10    13 1   
    30    10    12 1   
    31    13    12 1   
    32     1    28 1   
    33     2    29 1   
    34     6    30 1   
    35    12    31 1   
    36    12    32 1   
    37    13    33 1   
    38    13    34 1   
    39    14    35 1   
    40    15    36 1   
    41    17    37 1   
    42    18    38 1   
    43    23    39 1   
    44    24    40 1   
    45    25    41 1   
    46    26    42 1   
@<TRIPOS>SUBSTRUCTURE
     1 1EN         1 TEMP              0 ****  ****    0 ROOT
