@<TRIPOS>MOLECULE
1EN
   42    46     1     0     0
SMALL
bcc


@<TRIPOS>ATOM
      1 C1          -0.0580     0.3520    -0.1250 cc         1 1EN      -0.123000
      2 C2           1.3130     0.2850    -0.1480 cd         1 1EN      -0.095300
      3 N3           2.0140     0.2090     1.0390 na         1 1EN      -0.047200
      4 C4           1.3380     0.2150     2.2990 cd         1 1EN      -0.097300
      5 C5          -0.1010     0.2760     2.2960 cd         1 1EN       0.175100
      6 C6          -0.7790     0.3440     1.1030 cc         1 1EN      -0.203000
      7 C7           3.3780     0.1440     1.3690 cd         1 1EN       0.321800
      8 N8           3.4720     0.1160     2.7460 nc         1 1EN      -0.344700
      9 N9           2.2920     0.1550     3.2960 nc         1 1EN      -0.048000
     10 C10          4.4810     0.1050     0.3930 cx         1 1EN      -0.091000
     11 C11          4.5350     1.2890    -0.4900 ca         1 1EN      -0.058300
     12 C12          5.7850    -0.5300     0.8370 cx         1 1EN      -0.100400
     13 C13          4.9050    -1.2540    -0.1300 cx         1 1EN      -0.100400
     14 C14          4.2710     1.1800    -1.8610 ca         1 1EN      -0.112000
     15 C15          4.3300     2.3020    -2.6850 ca         1 1EN      -0.125000
     16 C16          4.6530     3.5460    -2.1350 ca         1 1EN       0.019400
     17 C17          4.9170     3.6690    -0.7670 ca         1 1EN      -0.125000
     18 C18          4.8570     2.5420     0.0490 ca         1 1EN      -0.112000
     19 Cl19         4.7260     4.9170    -3.1360 cl         1 1EN      -0.091400
     20 O20         -0.6720     0.2200     3.5560 os         1 1EN      -0.203200
     21 C21         -2.0190     0.5800     3.6250 ca         1 1EN       0.035100
     22 C22         -2.9690    -0.4290     3.9020 ca         1 1EN       0.136900
     23 C23         -4.3080    -0.0590     4.1340 ca         1 1EN      -0.162000
     24 C24         -4.6760     1.2810     4.0790 ca         1 1EN      -0.102000
     25 C25         -3.7300     2.2700     3.7990 ca         1 1EN      -0.137000
     26 C26         -2.4000     1.9250     3.5730 ca         1 1EN      -0.109000
     27 F27         -2.6050    -1.7280     3.9550 f          1 1EN      -0.119900
     28 H1          -0.6170     0.4100    -1.0710 ha         1 1EN       0.156000
     29 H2           1.9210     0.3010    -1.0700 h4         1 1EN       0.176000
     30 H3          -1.8770     0.3930     1.0810 ha         1 1EN       0.158000
     31 H4           6.7260    -0.0770     0.4750 hc         1 1EN       0.085200
     32 H5           5.8750    -0.9010     1.8740 hc         1 1EN       0.085200
     33 H6           4.3510    -2.1460     0.2110 hc         1 1EN       0.085200
     34 H7           5.2190    -1.3370    -1.1870 hc         1 1EN       0.085200
     35 H8           4.0200     0.2010    -2.2970 ha         1 1EN       0.145000
     36 H9           4.1250     2.2060    -3.7620 ha         1 1EN       0.149500
     37 H10          5.1720     4.6490    -0.3350 ha         1 1EN       0.149500
     38 H11          5.0620     2.6340     1.1280 ha         1 1EN       0.145000
     39 H12         -5.0500    -0.8400     4.3590 ha         1 1EN       0.155000
     40 H13         -5.7240     1.5630     4.2600 ha         1 1EN       0.143000
     41 H14         -4.0330     3.3270     3.7640 ha         1 1EN       0.144000
     42 H15         -1.6410     2.6940     3.3640 ha         1 1EN       0.156000
@<TRIPOS>BOND
     1     1     2 2   
     2     1     6 1   
     3     1    28 1   
     4     2     3 1   
     5     2    29 1   
     6     3     4 1   
     7     3     7 1   
     8     4     5 1   
     9     4     9 2   
    10     5     6 2   
    11     5    20 1   
    12     6    30 1   
    13     7     8 2   
    14     7    10 1   
    15     8     9 1   
    16    10    11 1   
    17    10    12 1   
    18    10    13 1   
    19    11    14 ar  
    20    11    18 ar  
    21    12    13 1   
    22    12    31 1   
    23    12    32 1   
    24    13    33 1   
    25    13    34 1   
    26    14    15 ar  
    27    14    35 1   
    28    15    16 ar  
    29    15    36 1   
    30    16    17 ar  
    31    16    19 1   
    32    17    18 ar  
    33    17    37 1   
    34    18    38 1   
    35    20    21 1   
    36    21    22 ar  
    37    21    26 ar  
    38    22    23 ar  
    39    22    27 1   
    40    23    24 ar  
    41    23    39 1   
    42    24    25 ar  
    43    24    40 1   
    44    25    26 ar  
    45    25    41 1   
    46    26    42 1   
@<TRIPOS>SUBSTRUCTURE
     1 1EN         1 TEMP              0 ****  ****    0 ROOT
