@<TRIPOS>MOLECULE
1EO
   43    47     1     0     0
SMALL
bcc


@<TRIPOS>ATOM
      1 C1           0.3780     0.0330    -0.1310 ca         1 1EO       0.034100
      2 C2           1.7050    -0.1340     0.3280 ca         1 1EO       0.136900
      3 C3           1.9470    -0.1660     1.7150 ca         1 1EO      -0.163000
      4 C4           0.8880    -0.0270     2.6060 ca         1 1EO      -0.101000
      5 C5          -0.4180     0.1410     2.1420 ca         1 1EO      -0.138000
      6 C6          -0.6790     0.1700     0.7750 ca         1 1EO      -0.107000
      7 C7          -0.6620     0.8870    -3.5040 cc         1 1EO      -0.100300
      8 C8          -1.4080     1.5390    -5.5180 cc         1 1EO       0.315800
      9 N9          -1.4080     0.1620    -5.4220 nd         1 1EO      -0.340700
     10 N10         -0.9760    -0.2260    -4.2560 nd         1 1EO      -0.045000
     11 C11         -0.7200     3.3170    -3.7970 cc         1 1EO      -0.102300
     12 C12         -0.1510     1.0800    -2.1710 cc         1 1EO       0.180100
     13 C13          0.0500     2.3520    -1.6930 cd         1 1EO      -0.208000
     14 C14         -0.2400     3.4750    -2.5200 cd         1 1EO      -0.120000
     15 N15         -0.9320     2.0480    -4.2970 na         1 1EO      -0.053200
     16 C16         -1.8230     2.3500    -6.6740 c3         1 1EO      -0.075300
     17 C17         -3.0360     3.2790    -6.4180 c3         1 1EO      -0.070400
     18 C18         -3.5580     3.6020    -7.8280 c3         1 1EO      -0.110400
     19 C19         -2.5920     2.8220    -8.7540 c3         1 1EO       0.127800
     20 C20         -1.2220     3.5420    -8.7060 c3         1 1EO      -0.110400
     21 C21         -0.7000     3.2190    -7.2960 c3         1 1EO      -0.070400
     22 C22         -2.3090     1.5450    -7.9140 c3         1 1EO      -0.042400
     23 O23         -3.0800     2.5310   -10.0310 oh         1 1EO      -0.562800
     24 O24          0.1230    -0.0970    -1.4970 os         1 1EO      -0.202200
     25 F25          2.7280    -0.2690    -0.5430 f          1 1EO      -0.119900
     26 H1           2.9770    -0.3050     2.0770 ha         1 1EO       0.155000
     27 H2           1.0850    -0.0530     3.6890 ha         1 1EO       0.143000
     28 H3          -1.2470     0.2440     2.8580 ha         1 1EO       0.144000
     29 H4          -1.7050     0.2890     0.3950 ha         1 1EO       0.156000
     30 H7           0.4370     2.5200    -0.6780 ha         1 1EO       0.158000
     31 H8          -0.0710     4.4870    -2.1230 ha         1 1EO       0.155000
     32 H9          -3.8120     2.7480    -5.8170 hc         1 1EO       0.049450
     33 H10         -2.7330     4.2020    -5.8710 hc         1 1EO       0.049450
     34 H11         -4.6030     3.2370    -7.9690 hc         1 1EO       0.052700
     35 H12         -3.5320     4.6970    -8.0380 hc         1 1EO       0.052700
     36 H13         -0.5450     3.1320    -9.4930 hc         1 1EO       0.052700
     37 H14         -1.3290     4.6400    -8.8670 hc         1 1EO       0.052700
     38 H15          0.2550     2.6440    -7.3450 hc         1 1EO       0.049450
     39 H16         -0.5270     4.1460    -6.7000 hc         1 1EO       0.049450
     40 H17         -3.2230     0.9450    -7.7150 hc         1 1EO       0.076700
     41 H18         -1.5190     0.9010    -8.3550 hc         1 1EO       0.076700
     42 H19         -3.2180     3.3800   -10.4710 ho         1 1EO       0.403000
     43 H6          -0.9560     4.1540    -4.4740 h4         1 1EO       0.170000
@<TRIPOS>BOND
     1     1     2 ar  
     2     1     6 ar  
     3     1    24 1   
     4     2     3 ar  
     5     2    25 1   
     6     3     4 ar  
     7     3    26 1   
     8     4     5 ar  
     9     4    27 1   
    10     5     6 ar  
    11     5    28 1   
    12     6    29 1   
    13     7    10 2   
    14     7    12 1   
    15     7    15 1   
    16     8     9 2   
    17     8    15 1   
    18     8    16 1   
    19     9    10 1   
    20    11    14 2   
    21    11    15 1   
    22    11    43 1   
    23    12    13 2   
    24    12    24 1   
    25    13    14 1   
    26    13    30 1   
    27    14    31 1   
    28    16    17 1   
    29    16    21 1   
    30    16    22 1   
    31    17    18 1   
    32    17    32 1   
    33    17    33 1   
    34    18    19 1   
    35    18    34 1   
    36    18    35 1   
    37    19    20 1   
    38    19    22 1   
    39    19    23 1   
    40    20    21 1   
    41    20    36 1   
    42    20    37 1   
    43    21    38 1   
    44    21    39 1   
    45    22    40 1   
    46    22    41 1   
    47    23    42 1   
@<TRIPOS>SUBSTRUCTURE
     1 1EO         1 TEMP              0 ****  ****    0 ROOT
