@<TRIPOS>MOLECULE
molecule
   43    47     1     0     0
SMALL
bcc


@<TRIPOS>ATOM
      1 C1           0.0000     0.0000     0.0000 ca         1 1EO       0.099100
      2 C2           1.3900     0.0000     0.0000 ca         1 1EO       0.121900
      3 C3           2.0800     0.0000     1.1980 ca         1 1EO      -0.138000
      4 C4           1.3880    -0.0020     2.3960 ca         1 1EO      -0.131000
      5 C5           0.0060    -0.0020     2.3980 ca         1 1EO      -0.107000
      6 C6          -0.6900    -0.0020     1.2030 ca         1 1EO      -0.169000
      7 C7          -2.6280     1.3270    -0.6750 cc         1 1EO      -0.107300
      8 C8          -4.2570     2.6860    -0.1700 cc         1 1EO       0.322800
      9 N9          -3.1080     3.2690     0.0600 nd         1 1EO      -0.332700
     10 N10         -2.1390     2.4760    -0.2390 nd         1 1EO      -0.071000
     11 C11         -4.7840     0.3920    -1.0290 cc         1 1EO      -0.081300
     12 C12         -2.0330     0.1290    -1.1280 cc         1 1EO       0.155100
     13 C13         -2.8360    -0.9040    -1.5210 cd         1 1EO      -0.131000
     14 C14         -4.2320    -0.7590    -1.4650 cd         1 1EO      -0.145000
     15 N15         -3.9950     1.4370    -0.6410 na         1 1EO      -0.047200
     16 C16         -5.6210     3.2830     0.0620 c3         1 1EO      -0.081300
     17 C17         -6.5330     3.4090    -1.1960 c3         1 1EO      -0.069900
     18 C18         -7.5880     4.4700    -0.8110 c3         1 1EO      -0.108400
     19 C19         -7.2140     4.8870     0.6450 c3         1 1EO       0.128800
     20 C20         -7.5730     3.6400     1.5120 c3         1 1EO      -0.108400
     21 C21         -6.5110     2.5600     1.1180 c3         1 1EO      -0.069900
     22 C22         -5.6510     4.7610     0.5900 c3         1 1EO      -0.028400
     23 O23         -7.7460     6.1340     1.0950 oh         1 1EO      -0.568800
     24 O24         -0.6820     0.0060    -1.1760 os         1 1EO      -0.215200
     25 F25          2.0650     0.0000    -1.1700 f          1 1EO      -0.129900
     26 H1           3.1630     0.0000     1.1980 ha         1 1EO       0.150000
     27 H2           1.9300    -0.0020     3.3330 ha         1 1EO       0.138000
     28 H3          -0.5340    -0.0030     3.3370 ha         1 1EO       0.136000
     29 H4          -1.7730    -0.0020     1.2070 ha         1 1EO       0.143000
     30 H7          -2.3980    -1.8310    -1.8710 ha         1 1EO       0.163000
     31 H8          -4.8700    -1.5780    -1.7760 ha         1 1EO       0.158000
     32 H9          -5.9550     3.7430    -2.0490 hc         1 1EO       0.048700
     33 H10         -7.0120     2.4610    -1.4120 hc         1 1EO       0.048700
     34 H11         -7.5260     5.3240    -1.4750 hc         1 1EO       0.051950
     35 H12         -8.5820     4.0420    -0.8370 hc         1 1EO       0.051950
     36 H13         -8.5710     3.2920     1.2750 hc         1 1EO       0.051950
     37 H14         -7.4960     3.8790     2.5650 hc         1 1EO       0.051950
     38 H15         -5.9210     2.2750     1.9810 hc         1 1EO       0.048700
     39 H16         -6.9920     1.6940     0.6810 hc         1 1EO       0.048700
     40 H17         -5.2160     5.4520    -0.1220 hc         1 1EO       0.074200
     41 H18         -5.2050     4.8470     1.5730 hc         1 1EO       0.074200
     42 H19         -8.6880     6.0950     1.0880 ho         1 1EO       0.406000
     43 H6          -5.8620     0.4900    -0.9920 h4         1 1EO       0.168000
@<TRIPOS>BOND
     1    18    19 1   
     2    18    17 1   
     3    23    19 1   
     4    19    20 1   
     5    19    22 1   
     6    20    21 1   
     7    17    16 1   
     8    21    16 1   
     9    22    16 1   
    10    16     8 1   
    11    11    15 1   
    12    11    14 2   
    13     8    15 1   
    14     8     9 2   
    15    15     7 1   
    16    14    13 1   
    17     9    10 1   
    18     7    10 2   
    19     7    12 1   
    20    13    12 2   
    21    12    24 1   
    22    24     1 1   
    23     1     6 ar  
    24     1     2 ar  
    25    25     2 1   
    26     6     5 ar  
    27     2     3 ar  
    28     5     4 ar  
    29     3     4 ar  
    30     3    26 1   
    31     4    27 1   
    32     5    28 1   
    33     6    29 1   
    34    11    43 1   
    35    13    30 1   
    36    14    31 1   
    37    17    32 1   
    38    17    33 1   
    39    18    34 1   
    40    18    35 1   
    41    20    36 1   
    42    20    37 1   
    43    21    38 1   
    44    21    39 1   
    45    22    40 1   
    46    22    41 1   
    47    23    42 1   
@<TRIPOS>SUBSTRUCTURE
     1 1EO         1 TEMP              0 ****  ****    0 ROOT
