@<TRIPOS>MOLECULE
1EO
   43    47     1     0     0
SMALL
bcc


@<TRIPOS>ATOM
      1 C1         -0.2060   -0.2460    0.2150 ca        1 1EO      0.055100
      2 C2          0.8730    0.6070   -0.1110 ca        1 1EO      0.152900
      3 C3          1.7520    1.0120    0.9120 ca        1 1EO     -0.156000
      4 C4          1.5390    0.5800    2.2180 ca        1 1EO     -0.101000
      5 C5          0.4670   -0.2570    2.5280 ca        1 1EO     -0.132000
      6 C6         -0.4100   -0.6740    1.5300 ca        1 1EO     -0.110000
      7 C7         -2.7900    0.8650   -0.3630 cc        1 1EO     -0.123300
      8 C8         -4.3230    2.4560    0.0400 cc        1 1EO      0.312800
      9 N9         -3.0830    2.8520    0.4970 nd        1 1EO     -0.334700
     10 N10        -2.1870    1.9350    0.2680 nd        1 1EO     -0.066000
     11 C11        -5.0370    0.2870   -1.1350 cc        1 1EO     -0.098300
     12 C12        -2.3120   -0.3980   -0.8530 cc        1 1EO      0.171100
     13 C13        -3.1910   -1.2750   -1.4510 cd        1 1EO     -0.163000
     14 C14        -4.5610   -0.9170   -1.5940 cd        1 1EO     -0.127000
     15 N15        -4.1780    1.1750   -0.5210 na        1 1EO     -0.049200
     16 C16        -5.5830    3.2150    0.1150 c3        1 1EO     -0.075300
     17 C17        -6.1990    3.5900   -1.2570 c3        1 1EO     -0.070400
     18 C18        -7.1570    4.7460   -0.9270 c3        1 1EO     -0.110400
     19 C19        -6.9930    4.9220    0.6020 c3        1 1EO      0.127800
     20 C20        -7.6590    3.7010    1.2830 c3        1 1EO     -0.110400
     21 C21        -6.7000    2.5450    0.9540 c3        1 1EO     -0.070400
     22 C22        -5.4820    4.6090    0.7970 c3        1 1EO     -0.043400
     23 O23        -7.3550    6.1720    1.1120 oh        1 1EO     -0.562800
     24 O24        -0.9750   -0.7490   -0.8360 os        1 1EO     -0.227200
     25 F25         1.0710    1.0180   -1.3820 f         1 1EO     -0.122900
     26 H1          2.5920    1.6770    0.6650 ha        1 1EO      0.152000
     27 H2          2.2250    0.9090    3.0140 ha        1 1EO      0.139000
     28 H3          0.3090   -0.5880    3.5650 ha        1 1EO      0.139000
     29 H4         -1.2600   -1.3310    1.7620 ha        1 1EO      0.146000
     30 H7         -2.8360   -2.2430   -1.8330 ha        1 1EO      0.164000
     31 H8         -5.2470   -1.6240   -2.0820 ha        1 1EO      0.157000
     32 H9         -6.7400    2.7250   -1.7090 hc        1 1EO      0.049450
     33 H10        -5.4020    3.9200   -1.9640 hc        1 1EO      0.049450
     34 H11        -6.8600    5.6830   -1.4560 hc        1 1EO      0.053200
     35 H12        -8.2100    4.5030   -1.2010 hc        1 1EO      0.053200
     36 H13        -7.7310    3.8680    2.3840 hc        1 1EO      0.053200
     37 H14        -8.6820    3.5170    0.8830 hc        1 1EO      0.053200
     38 H15        -7.2120    1.7380    0.3780 hc        1 1EO      0.049450
     39 H16        -6.2740    2.1010    1.8850 hc        1 1EO      0.049450
     40 H17        -4.8190    5.3160    0.2530 hc        1 1EO      0.076200
     41 H18        -5.1840    4.5540    1.8650 hc        1 1EO      0.076200
     42 H19        -8.2990    6.2750    0.9370 ho        1 1EO      0.403000
     43 H6         -6.0890    0.6070   -1.2260 h4        1 1EO      0.171000
@<TRIPOS>BOND
     1    1    2 ar  
     2    1    6 ar  
     3    1   24 1   
     4    2    3 ar  
     5    2   25 1   
     6    3    4 ar  
     7    3   26 1   
     8    4    5 ar  
     9    4   27 1   
    10    5    6 ar  
    11    5   28 1   
    12    6   29 1   
    13    7   10 2   
    14    7   12 1   
    15    7   15 1   
    16    8    9 2   
    17    8   15 1   
    18    8   16 1   
    19    9   10 1   
    20   11   14 2   
    21   11   15 1   
    22   11   43 1   
    23   12   13 2   
    24   12   24 1   
    25   13   14 1   
    26   13   30 1   
    27   14   31 1   
    28   16   17 1   
    29   16   21 1   
    30   16   22 1   
    31   17   18 1   
    32   17   32 1   
    33   17   33 1   
    34   18   19 1   
    35   18   34 1   
    36   18   35 1   
    37   19   20 1   
    38   19   22 1   
    39   19   23 1   
    40   20   21 1   
    41   20   36 1   
    42   20   37 1   
    43   21   38 1   
    44   21   39 1   
    45   22   40 1   
    46   22   41 1   
    47   23   42 1   
@<TRIPOS>SUBSTRUCTURE
     1 1EO         1 TEMP              0 ****  ****    0 ROOT
