@<TRIPOS>MOLECULE
1EP
   45    46     1     0     0
SMALL
bcc


@<TRIPOS>ATOM
      1 N1           0.0000     0.0000     0.0000 n          1 1EP      -0.125400
      2 C2           1.3380     0.0000     0.0000 c          1 1EP       0.618500
      3 O3           2.0150     0.0000    -1.0100 o          1 1EP      -0.700500
      4 N4           1.8520     0.0000     1.2430 ns         1 1EP      -0.208900
      5 C5           0.7080    -0.0010     2.1720 c3         1 1EP      -0.090300
      6 C6          -0.4970     0.0050     1.2520 c          1 1EP       0.630500
      7 O7          -1.6660     0.0070     1.5760 o          1 1EP      -0.618500
      8 C8           0.7210     1.2580     3.0420 c3         1 1EP      -0.048700
      9 C9          -0.4960     1.2500     3.9700 c3         1 1EP       0.000400
     10 C10          2.0010     1.2860     3.8800 c3         1 1EP       0.000400
     11 C11         -0.8220     0.0010    -1.2130 c3         1 1EP       0.123300
     12 C12         -1.1050    -1.4200    -1.6290 ca         1 1EP      -0.147300
     13 C13         -0.2410    -2.0740    -2.4880 ca         1 1EP      -0.074500
     14 C14         -0.5000    -3.3760    -2.8700 ca         1 1EP      -0.114000
     15 C15         -1.6230    -4.0250    -2.3930 ca         1 1EP      -0.066300
     16 C16         -2.4860    -3.3730    -1.5340 ca         1 1EP      -0.114000
     17 C17         -2.2250    -2.0710    -1.1480 ca         1 1EP      -0.074500
     18 C18         -1.9070    -5.4460    -2.8100 c3         1 1EP      -0.015700
     19 C19         -2.0610    -5.5090    -4.3320 c3         1 1EP       0.005567
     20 C20         -0.7470    -6.3460    -2.3780 c3         1 1EP       0.005567
     21 C21         -3.1990    -5.9250    -2.1470 c3         1 1EP       0.005567
     22 H1           2.8220    -0.0010     1.4890 hn         1 1EP       0.222500
     23 H2           0.7150    -0.8950     2.7820 h1         1 1EP       0.063700
     24 H3           0.6860     2.1360     2.4080 hc         1 1EP       0.033700
     25 H4          -1.3530     1.6540     3.4450 hc         1 1EP       0.010867
     26 H5          -0.2890     1.8560     4.8430 hc         1 1EP       0.010867
     27 H6          -0.7090     0.2330     4.2780 hc         1 1EP       0.010867
     28 H7           2.8390     1.5620     3.2510 hc         1 1EP       0.010867
     29 H8           2.1760     0.3040     4.3040 hc         1 1EP       0.010867
     30 H9           1.8950     2.0100     4.6780 hc         1 1EP       0.010867
     31 H10         -0.2920     0.5120    -2.0080 h1         1 1EP       0.043200
     32 H11         -1.7570     0.5130    -1.0150 h1         1 1EP       0.043200
     33 H12          0.6400    -1.5650    -2.8610 ha         1 1EP       0.120000
     34 H13          0.1770    -3.8870    -3.5430 ha         1 1EP       0.116500
     35 H14         -3.3660    -3.8830    -1.1580 ha         1 1EP       0.116500
     36 H15         -2.9020    -1.5590    -0.4740 ha         1 1EP       0.120000
     37 H16         -1.1040    -5.3140    -4.8000 hc         1 1EP       0.007367
     38 H17         -2.7790    -4.7640    -4.6530 hc         1 1EP       0.007367
     39 H18         -2.4090    -6.4940    -4.6190 hc         1 1EP       0.007367
     40 H19         -1.0140    -7.3820    -2.5430 hc         1 1EP       0.007367
     41 H20         -0.5420    -6.1890    -1.3260 hc         1 1EP       0.007367
     42 H21          0.1350    -6.1030    -2.9580 hc         1 1EP       0.007367
     43 H22         -3.4030    -6.9450    -2.4480 hc         1 1EP       0.007367
     44 H23         -4.0200    -5.2880    -2.4530 hc         1 1EP       0.007367
     45 H24         -3.0910    -5.8810    -1.0700 hc         1 1EP       0.007367
@<TRIPOS>BOND
     1     1     2 1   
     2     1     6 1   
     3     1    11 1   
     4     2     3 2   
     5     2     4 1   
     6     4     5 1   
     7     4    22 1   
     8     5     6 1   
     9     5     8 1   
    10     5    23 1   
    11     6     7 2   
    12     8     9 1   
    13     8    10 1   
    14     8    24 1   
    15     9    25 1   
    16     9    26 1   
    17     9    27 1   
    18    10    28 1   
    19    10    29 1   
    20    10    30 1   
    21    11    12 1   
    22    11    31 1   
    23    11    32 1   
    24    12    13 ar  
    25    12    17 ar  
    26    13    14 ar  
    27    13    33 1   
    28    14    15 ar  
    29    14    34 1   
    30    15    16 ar  
    31    15    18 1   
    32    16    17 ar  
    33    16    35 1   
    34    17    36 1   
    35    18    19 1   
    36    18    20 1   
    37    18    21 1   
    38    19    37 1   
    39    19    38 1   
    40    19    39 1   
    41    20    40 1   
    42    20    41 1   
    43    20    42 1   
    44    21    43 1   
    45    21    44 1   
    46    21    45 1   
@<TRIPOS>SUBSTRUCTURE
     1 1EP         1 TEMP              0 ****  ****    0 ROOT
