@<TRIPOS>MOLECULE
1EP
   45    46     1     0     0
SMALL
bcc


@<TRIPOS>ATOM
      1 N1          -0.3130    -0.1590    -0.0150 n          1 1EP      -0.512400
      2 C2           0.9720    -0.7850    -0.0360 c          1 1EP       0.776500
      3 O3           1.4900    -1.3100    -1.0340 o          1 1EP      -0.602500
      4 N4           1.5250    -0.7870     1.2830 ns         1 1EP      -0.504900
      5 C5           0.6620     0.0200     2.1560 c3         1 1EP      -0.013300
      6 C6          -0.5610     0.3800     1.2620 c          1 1EP       0.698500
      7 O7          -1.5830     0.9780     1.6050 o          1 1EP      -0.585500
      8 C8           1.3190     1.2570     2.7810 c3         1 1EP      -0.071700
      9 C9           1.6170     2.3260     1.7530 c3         1 1EP      -0.103100
     10 C10          0.4340     1.8020     3.8820 c3         1 1EP      -0.103100
     11 C11         -1.1510    -0.0180    -1.1740 c3         1 1EP       0.159300
     12 C12         -1.0120     1.2920    -1.8960 ca         1 1EP      -0.131300
     13 C13         -1.6230     2.4410    -1.3890 ca         1 1EP      -0.109500
     14 C14         -1.5320     3.6500    -2.0770 ca         1 1EP      -0.135000
     15 C15         -0.8260     3.7340    -3.2830 ca         1 1EP      -0.054300
     16 C16         -0.2100     2.5750    -3.7800 ca         1 1EP      -0.135000
     17 C17         -0.2980     1.3670    -3.0950 ca         1 1EP      -0.109500
     18 C18         -0.7080     5.0190    -4.0600 c3         1 1EP      -0.011700
     19 C19          0.7660     5.3950    -4.1940 c3         1 1EP      -0.086100
     20 C20         -1.3070     4.8270    -5.4510 c3         1 1EP      -0.086100
     21 C21         -1.4350     6.1760    -3.3850 c3         1 1EP      -0.086100
     22 H1           2.5050    -0.6170     1.3360 hn         1 1EP       0.311500
     23 H2           0.2950    -0.6560     2.9830 h1         1 1EP       0.104700
     24 H3           2.2930     0.9260     3.2450 hc         1 1EP       0.056700
     25 H4           2.3040     1.9400     0.9620 hc         1 1EP       0.047200
     26 H5           2.1060     3.2020     2.2450 hc         1 1EP       0.047200
     27 H6           0.6730     2.6770     1.2680 hc         1 1EP       0.047200
     28 H7           0.3040     1.0440     4.6920 hc         1 1EP       0.047200
     29 H8           0.8960     2.7180     4.3230 hc         1 1EP       0.047200
     30 H9          -0.5750     2.0680     3.4780 hc         1 1EP       0.047200
     31 H10         -2.2210    -0.1280    -0.8280 h1         1 1EP       0.076700
     32 H11         -0.9010    -0.8650    -1.8770 h1         1 1EP       0.076700
     33 H12         -2.1740     2.3880    -0.4350 ha         1 1EP       0.145000
     34 H13         -2.0270     4.5350    -1.6510 ha         1 1EP       0.135000
     35 H14          0.3540     2.6170    -4.7250 ha         1 1EP       0.135000
     36 H15          0.1990     0.4700    -3.4960 ha         1 1EP       0.145000
     37 H16          1.2220     5.5350    -3.1860 hc         1 1EP       0.037478
     38 H17          0.8630     6.3480    -4.7680 hc         1 1EP       0.037478
     39 H18          1.3290     4.5970    -4.7340 hc         1 1EP       0.037478
     40 H19         -0.7670     4.0230    -6.0050 hc         1 1EP       0.037478
     41 H20         -1.2270     5.7760    -6.0330 hc         1 1EP       0.037478
     42 H21         -2.3840     4.5440    -5.3720 hc         1 1EP       0.037478
     43 H22         -1.3180     7.1020    -3.9990 hc         1 1EP       0.037478
     44 H23         -1.0090     6.3710    -2.3720 hc         1 1EP       0.037478
     45 H24         -2.5240     5.9540    -3.2880 hc         1 1EP       0.037478
@<TRIPOS>BOND
     1     1     2 1   
     2     1     6 1   
     3     1    11 1   
     4     2     3 2   
     5     2     4 1   
     6     4     5 1   
     7     4    22 1   
     8     5     6 1   
     9     5     8 1   
    10     5    23 1   
    11     6     7 2   
    12     8     9 1   
    13     8    10 1   
    14     8    24 1   
    15     9    25 1   
    16     9    26 1   
    17     9    27 1   
    18    10    28 1   
    19    10    29 1   
    20    10    30 1   
    21    11    12 1   
    22    11    31 1   
    23    11    32 1   
    24    12    13 ar  
    25    12    17 ar  
    26    13    14 ar  
    27    13    33 1   
    28    14    15 ar  
    29    14    34 1   
    30    15    16 ar  
    31    15    18 1   
    32    16    17 ar  
    33    16    35 1   
    34    17    36 1   
    35    18    19 1   
    36    18    20 1   
    37    18    21 1   
    38    19    37 1   
    39    19    38 1   
    40    19    39 1   
    41    20    40 1   
    42    20    41 1   
    43    20    42 1   
    44    21    43 1   
    45    21    44 1   
    46    21    45 1   
@<TRIPOS>SUBSTRUCTURE
     1 1EP         1 TEMP              0 ****  ****    0 ROOT
