@<TRIPOS>MOLECULE
1EQ
   38    42     1     0     0
SMALL
bcc


@<TRIPOS>ATOM
      1 C1          0.1670    0.5770   -0.0090 cc        1 1EQ     -0.150000
      2 C2          1.5320    0.4240    0.0030 cd        1 1EQ     -0.073300
      3 N3          2.1740    0.1930    1.1990 na        1 1EQ     -0.055200
      4 C4          1.4460    0.1230    2.4310 cd        1 1EQ     -0.077300
      5 C5          0.0160    0.2830    2.4150 cd        1 1EQ      0.019700
      6 C6         -0.5870    0.5040    1.1960 cc        1 1EQ     -0.131000
      7 C7          3.5200   -0.0020    1.5590 cd        1 1EQ      0.309800
      8 N8          3.5630   -0.1710    2.9240 nc        1 1EQ     -0.337700
      9 N9          2.3660   -0.1020    3.4380 nc        1 1EQ     -0.093000
     10 C10         4.6500   -0.0200    0.6140 cx        1 1EQ     -0.088000
     11 C11         4.8140    1.2400   -0.1420 ca        1 1EQ     -0.058300
     12 C12         5.8940   -0.7860    1.0250 cx        1 1EQ     -0.101400
     13 C13         5.0000   -1.3460   -0.0340 cx        1 1EQ     -0.101400
     14 C14         5.1920    2.4090    0.5330 ca        1 1EQ     -0.112500
     15 C15         5.3560    3.6050   -0.1610 ca        1 1EQ     -0.125000
     16 C16         5.1410    3.6360   -1.5420 ca        1 1EQ      0.019400
     17 C17         4.7630    2.4780   -2.2280 ca        1 1EQ     -0.125000
     18 C18         4.5990    1.2860   -1.5250 ca        1 1EQ     -0.112500
     19 CL19        5.3410    5.0930   -2.3950 cl        1 1EQ     -0.091400
     20 C20        -0.7910    0.2210    3.6360 cx        1 1EQ     -0.102400
     21 C21        -0.3150    0.7620    4.9630 cx        1 1EQ     -0.108900
     22 C22        -0.4760   -0.7130    4.7810 cx        1 1EQ     -0.108900
     23 H1         -0.3530    0.7600   -0.9610 ha        1 1EQ      0.154000
     24 H2          2.1740    0.4850   -0.8940 h4        1 1EQ      0.174000
     25 H3         -1.6780    0.6320    1.1330 ha        1 1EQ      0.146000
     26 H4          6.8740   -0.3660    0.7370 hc        1 1EQ      0.084700
     27 H5          5.9220   -1.2640    2.0220 hc        1 1EQ      0.084700
     28 H6          4.3760   -2.2270    0.2000 hc        1 1EQ      0.084700
     29 H7          5.3450   -1.3460   -1.0840 hc        1 1EQ      0.084700
     30 H8          5.3570    2.3780    1.6220 ha        1 1EQ      0.145000
     31 H9          5.6530    4.5180    0.3780 ha        1 1EQ      0.149500
     32 H10         4.5960    2.5040   -3.3150 ha        1 1EQ      0.149500
     33 H11         4.3060    0.3740   -2.0670 ha        1 1EQ      0.145000
     34 H12        -1.8710    0.3670    3.4080 hc        1 1EQ      0.079700
     35 H13        -1.0460    1.3120    5.5840 hc        1 1EQ      0.080950
     36 H14         0.6990    1.1900    5.0480 hc        1 1EQ      0.080950
     37 H15         0.4210   -1.3550    4.7340 hc        1 1EQ      0.080950
     38 H16        -1.3240   -1.2270    5.2700 hc        1 1EQ      0.080950
@<TRIPOS>BOND
     1    1    2 2   
     2    1    6 1   
     3    1   23 1   
     4    2    3 1   
     5    2   24 1   
     6    3    4 1   
     7    3    7 1   
     8    4    5 1   
     9    4    9 2   
    10    5    6 2   
    11    5   20 1   
    12    6   25 1   
    13    7    8 2   
    14    7   10 1   
    15    8    9 1   
    16   10   11 1   
    17   10   12 1   
    18   10   13 1   
    19   11   14 ar  
    20   11   18 ar  
    21   12   13 1   
    22   12   26 1   
    23   12   27 1   
    24   13   28 1   
    25   13   29 1   
    26   14   15 ar  
    27   14   30 1   
    28   15   16 ar  
    29   15   31 1   
    30   16   17 ar  
    31   16   19 1   
    32   17   18 ar  
    33   17   32 1   
    34   18   33 1   
    35   20   21 1   
    36   20   22 1   
    37   20   34 1   
    38   21   22 1   
    39   21   35 1   
    40   21   36 1   
    41   22   37 1   
    42   22   38 1   
@<TRIPOS>SUBSTRUCTURE
     1 1EQ         1 TEMP              0 ****  ****    0 ROOT
