@<TRIPOS>MOLECULE
molecule
   38    42     1     0     0
SMALL
bcc


@<TRIPOS>ATOM
      1 C1           0.0000     0.0000     0.0000 cc         1 1EQ      -0.148000
      2 C2           1.3490     0.0000     0.0000 cd         1 1EQ      -0.082300
      3 N3           2.0420     0.0000     1.1750 na         1 1EQ      -0.041200
      4 C4           1.3750    -0.0000     2.3760 cd         1 1EQ      -0.063300
      5 C5          -0.0320     0.0000     2.3920 cd         1 1EQ       0.005700
      6 C6          -0.7110     0.0060     1.2130 cc         1 1EQ      -0.124000
      7 C7           3.3670     0.0010     1.4850 cd         1 1EQ       0.320800
      8 N8           3.4660     0.0020     2.7890 nc         1 1EQ      -0.336700
      9 N9           2.2970     0.0010     3.3260 nc         1 1EQ      -0.106000
     10 C10          4.5110    -0.0000     0.5040 cx         1 1EQ      -0.092000
     11 C11          4.8600     1.3420    -0.0880 ca         1 1EQ      -0.055300
     12 C12          5.6570    -0.9810     0.7560 cx         1 1EQ      -0.108400
     13 C13          4.6750    -1.2300    -0.3900 cx         1 1EQ      -0.108400
     14 C14          5.3640     2.3430     0.7210 ca         1 1EQ      -0.107000
     15 C15          5.6850     3.5740     0.1790 ca         1 1EQ      -0.122500
     16 C16          5.5010     3.8030    -1.1730 ca         1 1EQ       0.031400
     17 C17          4.9960     2.8000    -1.9830 ca         1 1EQ      -0.122500
     18 C18          4.6820     1.5680    -1.4400 ca         1 1EQ      -0.107000
     19 Cl19         5.9020     5.3480    -1.8550 cl         1 1EQ      -0.107400
     20 C20         -0.7800    -0.0000     3.7000 cx         1 1EQ      -0.111400
     21 C21         -0.5390     1.1740     4.6520 cx         1 1EQ      -0.124900
     22 C22          0.0340    -0.2070     4.9800 cx         1 1EQ      -0.124900
     23 H1          -0.5390     0.0050    -0.9400 ha         1 1EQ       0.152000
     24 H2           1.8860    -0.0050    -0.9410 h4         1 1EQ       0.166000
     25 H3          -1.7940     0.0060     1.2090 ha         1 1EQ       0.149000
     26 H4           5.5410    -1.6240     1.6200 hc         1 1EQ       0.086200
     27 H5           6.6410    -0.6360     0.4620 hc         1 1EQ       0.086200
     28 H6           5.0580    -1.0380    -1.3850 hc         1 1EQ       0.086200
     29 H7           3.9580    -2.0260    -0.2260 hc         1 1EQ       0.086200
     30 H8           5.5080     2.1640     1.7790 ha         1 1EQ       0.144500
     31 H9           6.0800     4.3590     0.8120 ha         1 1EQ       0.146500
     32 H10          4.8540     2.9780    -3.0420 ha         1 1EQ       0.146500
     33 H11          4.2870     0.7830    -2.0730 ha         1 1EQ       0.144500
     34 H12         -1.7820    -0.4100     3.7300 hc         1 1EQ       0.088700
     35 H13         -1.3940     1.4780     5.2450 hc         1 1EQ       0.088200
     36 H14          0.1790     1.9100     4.3140 hc         1 1EQ       0.088200
     37 H15          1.1040    -0.3130     4.8420 hc         1 1EQ       0.088200
     38 H16         -0.4700    -0.7460     5.7730 hc         1 1EQ       0.088200
@<TRIPOS>BOND
     1    22    21 1
     2    22    20 1
     3    21    20 1
     4     6     1 1
     5     6     5 2
     6    20     5 1
     7     1     2 2
     8     5     4 1
     9    19    16 1
    10     2     3 1
    11     4     3 1
    12     4     9 2
    13    17    16 ar
    14    17    18 ar
    15    16    15 ar
    16     3     7 1
    17     9     8 1
    18    18    11 ar
    19    15    14 ar
    20     7     8 2
    21     7    10 1
    22    11    14 ar
    23    11    10 1
    24    10    13 1
    25    10    12 1
    26    13    12 1
    27     1    23 1
    28     2    24 1
    29     6    25 1
    30    12    26 1
    31    12    27 1
    32    13    28 1
    33    13    29 1
    34    14    30 1
    35    15    31 1
    36    17    32 1
    37    18    33 1
    38    20    34 1
    39    21    35 1
    40    21    36 1
    41    22    37 1
    42    22    38 1
@<TRIPOS>SUBSTRUCTURE
     1 1EQ         1 TEMP              0 ****  ****    0 ROOT
