@<TRIPOS>MOLECULE
1EQ
   38    42     1     0     0
SMALL
bcc


@<TRIPOS>ATOM
      1 C1          -0.0430    -0.1170    -0.0570 cc         1 1EQ      -0.151000
      2 C2           1.3290    -0.0490    -0.0970 cd         1 1EQ      -0.070300
      3 N3           2.0380    -0.0150     1.0830 na         1 1EQ      -0.056200
      4 C4           1.3680    -0.0350     2.3480 cd         1 1EQ      -0.078300
      5 C5          -0.0690    -0.1060     2.3850 cd         1 1EQ       0.015700
      6 C6          -0.7400    -0.1480     1.1850 cc         1 1EQ      -0.134000
      7 C7           3.4080     0.0560     1.4010 cd         1 1EQ       0.311800
      8 N8           3.5130     0.0780     2.7740 nc         1 1EQ      -0.337700
      9 N9           2.3360     0.0240     3.3320 nc         1 1EQ      -0.087000
     10 C10          4.5000     0.0920     0.4140 cx         1 1EQ      -0.088000
     11 C11          4.4280     1.2400    -0.5140 ca         1 1EQ      -0.058300
     12 C12          5.8670    -0.3900     0.8650 cx         1 1EQ      -0.101400
     13 C13          5.0570    -1.2360    -0.0640 cx         1 1EQ      -0.101400
     14 C14          4.1720     1.0520    -1.8780 ca         1 1EQ      -0.112500
     15 C15          4.1110     2.1410    -2.7440 ca         1 1EQ      -0.125000
     16 C16          4.3040     3.4320    -2.2440 ca         1 1EQ       0.019400
     17 C17          4.5580     3.6340    -0.8830 ca         1 1EQ      -0.125000
     18 C18          4.6180     2.5390    -0.0250 ca         1 1EQ      -0.112500
     19 Cl19         4.2310     4.7640    -3.2970 cl         1 1EQ      -0.091400
     20 C20         -0.7340    -0.1290     3.6910 cx         1 1EQ      -0.086400
     21 C21         -1.9960    -0.9380     3.8870 cx         1 1EQ      -0.121900
     22 C22         -2.0680     0.5570     3.8770 cx         1 1EQ      -0.121900
     23 H1          -0.6150    -0.1460    -0.9950 ha         1 1EQ       0.153000
     24 H2           1.9220    -0.0070    -1.0270 h4         1 1EQ       0.174000
     25 H3          -1.8390    -0.2040     1.1660 ha         1 1EQ       0.146000
     26 H4           6.7530     0.1420     0.4740 hc         1 1EQ       0.084450
     27 H5           6.0020    -0.7090     1.9140 hc         1 1EQ       0.084450
     28 H6           4.5990    -2.1660     0.3190 hc         1 1EQ       0.084450
     29 H7           5.3700    -1.3290    -1.1190 hc         1 1EQ       0.084450
     30 H8           4.0240     0.0350    -2.2750 ha         1 1EQ       0.145000
     31 H9           3.9140     1.9830    -3.8160 ha         1 1EQ       0.149500
     32 H10          4.7090     4.6510    -0.4910 ha         1 1EQ       0.149500
     33 H11          4.8150     2.6930     1.0480 ha         1 1EQ       0.145000
     34 H12         -0.0240    -0.0890     4.5450 hc         1 1EQ       0.114700
     35 H13         -2.1250    -1.4800     4.8410 hc         1 1EQ       0.074950
     36 H14         -2.4090    -1.5020     3.0320 hc         1 1EQ       0.074950
     37 H15         -2.2490     1.0980     4.8220 hc         1 1EQ       0.074950
     38 H16         -2.5330     1.0670     3.0140 hc         1 1EQ       0.074950
@<TRIPOS>BOND
     1     1     2 2   
     2     1     6 1   
     3     1    23 1   
     4     2     3 1   
     5     2    24 1   
     6     3     4 1   
     7     3     7 1   
     8     4     5 1   
     9     4     9 2   
    10     5     6 2   
    11     5    20 1   
    12     6    25 1   
    13     7     8 2   
    14     7    10 1   
    15     8     9 1   
    16    10    11 1   
    17    10    12 1   
    18    10    13 1   
    19    11    14 ar  
    20    11    18 ar  
    21    12    13 1   
    22    12    26 1   
    23    12    27 1   
    24    13    28 1   
    25    13    29 1   
    26    14    15 ar  
    27    14    30 1   
    28    15    16 ar  
    29    15    31 1   
    30    16    17 ar  
    31    16    19 1   
    32    17    18 ar  
    33    17    32 1   
    34    18    33 1   
    35    20    21 1   
    36    20    22 1   
    37    20    34 1   
    38    21    22 1   
    39    21    35 1   
    40    21    36 1   
    41    22    37 1   
    42    22    38 1   
@<TRIPOS>SUBSTRUCTURE
     1 1EQ         1 TEMP              0 ****  ****    0 ROOT
