@<TRIPOS>MOLECULE
molecule
   34    35     1     0     0
SMALL
bcc


@<TRIPOS>ATOM
      1 O            0.0000     0.0000     0.0000 o          1 1ER      -0.645500
      2 C13          1.2200     0.0000     0.0000 c          1 1ER       0.685700
      3 N            1.8950     0.0000     1.1660 ns         1 1ER      -0.407100
      4 C12          3.2510     0.0010     1.1870 cc         1 1ER       0.001600
      5 C11          3.9700    -0.0000     0.0380 cd         1 1ER      -0.244000
      6 C10          3.3150    -0.0020    -1.1980 cd         1 1ER      -0.038000
      7 C9           1.9290    -0.0070    -1.2260 cc         1 1ER      -0.158400
      8 C8           1.2020    -0.0130    -2.5160 ca         1 1ER      -0.027800
      9 C7           0.4190     1.0800    -2.8850 ca         1 1ER      -0.098000
     10 C6          -0.2510     1.0710    -4.0900 ca         1 1ER      -0.129000
     11 C5          -0.1480    -0.0220    -4.9330 ca         1 1ER      -0.127000
     12 C14          1.3030    -1.1110    -3.3710 ca         1 1ER      -0.110000
     13 C4           0.6280    -1.1100    -4.5730 ca         1 1ER      -0.074300
     14 C1           0.7360    -2.2950    -5.4980 c3         1 1ER      -0.022700
     15 C3           2.1990    -2.5020    -5.8950 c3         1 1ER      -0.080767
     16 C2           0.2180    -3.5460    -4.7850 c3         1 1ER      -0.080767
     17 C           -0.1010    -2.0400    -6.7530 c3         1 1ER      -0.080767
     18 H1           3.7690     0.0010     2.1390 h4         1 1ER       0.151000
     19 H2           5.0520     0.0020     0.0770 ha         1 1ER       0.147000
     20 H3           3.8830    -0.0050    -2.1200 ha         1 1ER       0.144000
     21 H5           0.3380     1.9360    -2.2250 ha         1 1ER       0.136000
     22 H6          -0.8590     1.9200    -4.3770 ha         1 1ER       0.129000
     23 H7          -0.6760    -0.0250    -5.8790 ha         1 1ER       0.134000
     24 H8           1.9100    -1.9640    -3.0910 ha         1 1ER       0.132000
     25 H9           2.6250    -1.5570    -6.2100 hc         1 1ER       0.036589
     26 H10          2.7530    -2.8830    -5.0450 hc         1 1ER       0.036589
     27 H11          2.2550    -3.2130    -6.7100 hc         1 1ER       0.036589
     28 H12          0.1180    -4.3540    -5.5000 hc         1 1ER       0.036589
     29 H13         -0.7470    -3.3350    -4.3410 hc         1 1ER       0.036589
     30 H14          0.9180    -3.8350    -4.0100 hc         1 1ER       0.036589
     31 H15          0.2650    -1.1550    -7.2580 hc         1 1ER       0.036589
     32 H16         -0.0240    -2.8920    -7.4180 hc         1 1ER       0.036589
     33 H17         -1.1370    -1.8930    -6.4730 hc         1 1ER       0.036589
     34 H4           1.3880     0.0010     2.0290 hn         1 1ER       0.336500
@<TRIPOS>BOND
     1    10    11 ar
     2    10     9 ar
     3    11    13 ar
     4     9     8 ar
     5     1     2 2
     6    16    14 1
     7    13    12 ar
     8    13    14 1
     9     8    12 ar
    10     8     7 1
    11     2     7 1
    12     2     3 1
    13    14    17 1
    14    14    15 1
    15     7     6 2
    16     3     4 1
    17     6     5 1
    18     4     5 2
    19     4    18 1
    20     5    19 1
    21     6    20 1
    22     9    21 1
    23    10    22 1
    24    11    23 1
    25    12    24 1
    26    15    25 1
    27    15    26 1
    28    15    27 1
    29    16    28 1
    30    16    29 1
    31    16    30 1
    32    17    31 1
    33    17    32 1
    34    17    33 1
    35     3    34 1
@<TRIPOS>SUBSTRUCTURE
     1 1ER         1 TEMP              0 ****  ****    0 ROOT
