@<TRIPOS>MOLECULE
1ER
   34    35     1     0     0
SMALL
bcc


@<TRIPOS>ATOM
      1 O            0.0870     0.1690     0.0900 o          1 1ER      -0.640500
      2 C13          1.3310     0.1480     0.0080 c          1 1ER       0.689700
      3 N            2.0480     0.2120     1.2220 ns         1 1ER      -0.439100
      4 C12          3.4190     0.2190     1.2560 cc         1 1ER       0.010600
      5 C11          4.1630     0.1610     0.1040 cd         1 1ER      -0.249000
      6 C10          3.4960     0.0830    -1.1530 cd         1 1ER      -0.039000
      7 C9           2.1290     0.0660    -1.2270 cc         1 1ER      -0.136400
      8 C8           1.4340    -0.0330    -2.5060 ca         1 1ER      -0.042800
      9 C7           0.2490     0.6730    -2.7430 ca         1 1ER      -0.098000
     10 C6          -0.3750     0.5830    -3.9860 ca         1 1ER      -0.133000
     11 C5           0.1690    -0.2090    -4.9930 ca         1 1ER      -0.123000
     12 C14          1.9720    -0.8380    -3.5240 ca         1 1ER      -0.120000
     13 C4           1.3500    -0.9340    -4.7720 ca         1 1ER      -0.071300
     14 C1           1.9020    -1.7900    -5.8820 c3         1 1ER      -0.008700
     15 C3           3.1830    -2.5120    -5.4820 c3         1 1ER      -0.085767
     16 C2           2.2080    -0.9130    -7.0930 c3         1 1ER      -0.085767
     17 C            0.8660    -2.8430    -6.2710 c3         1 1ER      -0.085767
     18 H1           3.8840     0.2750     2.2570 h4         1 1ER       0.151000
     19 H2           5.2590     0.1740     0.1430 ha         1 1ER       0.151000
     20 H3           4.1090     0.0410    -2.0680 ha         1 1ER       0.144000
     21 H5          -0.1970     1.2840    -1.9420 ha         1 1ER       0.154000
     22 H6          -1.3060     1.1400    -4.1700 ha         1 1ER       0.132000
     23 H7          -0.3370    -0.2690    -5.9680 ha         1 1ER       0.130000
     24 H8           2.8920    -1.4040    -3.3140 ha         1 1ER       0.131000
     25 H9           2.9990    -3.1890    -4.6140 hc         1 1ER       0.036589
     26 H10          3.9800    -1.7790    -5.2130 hc         1 1ER       0.036589
     27 H11          3.5490    -3.1290    -6.3380 hc         1 1ER       0.036589
     28 H12          2.9610    -0.1340    -6.8250 hc         1 1ER       0.036589
     29 H13          2.6190    -1.5390    -7.9210 hc         1 1ER       0.036589
     30 H14          1.2830    -0.4060    -7.4570 hc         1 1ER       0.036589
     31 H15         -0.0730    -2.3570    -6.6280 hc         1 1ER       0.036589
     32 H16          1.2670    -3.4860    -7.0900 hc         1 1ER       0.036589
     33 H17          0.6240    -3.4880    -5.3940 hc         1 1ER       0.036589
     34 H4           1.5270     0.2550     2.0710 hn         1 1ER       0.333500
@<TRIPOS>BOND
     1     1     2 2   
     2     2     3 1   
     3     2     7 1   
     4     3     4 1   
     5     3    34 1   
     6     4     5 2   
     7     4    18 1   
     8     5     6 1   
     9     5    19 1   
    10     6     7 2   
    11     6    20 1   
    12     7     8 1   
    13     8     9 ar  
    14     8    12 ar  
    15     9    10 ar  
    16     9    21 1   
    17    10    11 ar  
    18    10    22 1   
    19    11    13 ar  
    20    11    23 1   
    21    12    13 ar  
    22    12    24 1   
    23    13    14 1   
    24    14    15 1   
    25    14    16 1   
    26    14    17 1   
    27    15    25 1   
    28    15    26 1   
    29    15    27 1   
    30    16    28 1   
    31    16    29 1   
    32    16    30 1   
    33    17    31 1   
    34    17    32 1   
    35    17    33 1   
@<TRIPOS>SUBSTRUCTURE
     1 1ER         1 TEMP              0 ****  ****    0 ROOT
