@<TRIPOS>MOLECULE
1ES
   28    29     1     0     0
SMALL
bcc


@<TRIPOS>ATOM
      1 CAK         -0.0060     0.0580    -0.0480 ca         1 1ES      -0.084800
      2 CAJ          1.4350    -0.0590    -0.1030 cc         1 1ES      -0.227400
      3 CAA          0.9040    -0.1500     3.5240 c3         1 1ES       0.017600
      4 NAM          0.8260    -0.0350     2.1020 na         1 1ES      -0.051400
      5 CAG          1.8950    -0.1240     1.2190 cd         1 1ES      -0.050100
      6 CAL         -0.3580     0.0680     1.3530 ca         1 1ES      -0.046200
      7 CAF         -1.6980     0.1750     1.7620 ca         1 1ES      -0.116000
      8 CAD         -2.6680     0.2660     0.7760 ca         1 1ES      -0.107000
      9 CAC         -2.3340     0.2500    -0.5910 ca         1 1ES      -0.125000
     10 CAE         -1.0160     0.1470    -1.0090 ca         1 1ES      -0.117000
     11 CAI          2.2520    -0.1360    -1.3150 c3         1 1ES       0.000800
     12 CAH          2.2410     1.2360    -1.9990 c3         1 1ES       0.089800
     13 NAB          2.9500     1.2320    -3.3140 nz         1 1ES      -0.839600
     14 H1           0.1610     0.5480     3.9970 h1         1 1ES       0.065033
     15 H2           1.9370     0.1190     3.8700 h1         1 1ES       0.065033
     16 H3           0.6700    -1.2020     3.8450 h1         1 1ES       0.065033
     17 H4           2.9190    -0.2310     1.5880 h4         1 1ES       0.174000
     18 H5          -1.9660     0.1820     2.8280 ha         1 1ES       0.148000
     19 H6          -3.7280     0.3480     1.0650 ha         1 1ES       0.149000
     20 H7          -3.1420     0.3150    -1.3360 ha         1 1ES       0.142000
     21 H8          -0.7680     0.1200    -2.0780 ha         1 1ES       0.112000
     22 H9           1.8250    -0.9120    -2.0080 hc         1 1ES       0.064200
     23 H10          3.3050    -0.4330    -1.0630 hc         1 1ES       0.064200
     24 H11          1.1720     1.5540    -2.1800 hx         1 1ES       0.117200
     25 H12          2.7420     2.0010    -1.3390 hx         1 1ES       0.117200
     26 H13          2.5090     0.5570    -3.9470 hn         1 1ES       0.457800
     27 H14          2.9120     2.1630    -3.7390 hn         1 1ES       0.457800
     28 HAB3         3.9300     0.9630    -3.1840 hn         1 1ES       0.457800
@<TRIPOS>BOND
     1     1     2 1   
     2     1     6 ar  
     3     1    10 ar  
     4     2     5 2   
     5     2    11 1   
     6     3     4 1   
     7     3    14 1   
     8     3    15 1   
     9     3    16 1   
    10     4     5 1   
    11     4     6 1   
    12     5    17 1   
    13     6     7 ar  
    14     7     8 ar  
    15     7    18 1   
    16     8     9 ar  
    17     8    19 1   
    18     9    10 ar  
    19     9    20 1   
    20    10    21 1   
    21    11    12 1   
    22    11    22 1   
    23    11    23 1   
    24    12    13 1   
    25    12    24 1   
    26    12    25 1   
    27    13    26 1   
    28    13    27 1   
    29    13    28 1   
@<TRIPOS>SUBSTRUCTURE
     1 1ES         1 TEMP              0 ****  ****    0 ROOT
