@<TRIPOS>MOLECULE
molecule
   28    29     1     0     0
SMALL
bcc


@<TRIPOS>ATOM
      1 CAK          0.0000     0.0000     0.0000 ca         1 1ES      -0.098800
      2 CAJ          1.4650     0.0000     0.0000 cc         1 1ES      -0.223400
      3 CAA          0.8130    -0.0010     3.5700 c3         1 1ES       0.032600
      4 NAM          0.7640    -0.0000     2.1060 na         1 1ES      -0.053400
      5 CAG          1.8580     0.0000     1.2830 cd         1 1ES      -0.050100
      6 CAL         -0.3890    -0.0070     1.3520 ca         1 1ES      -0.031200
      7 CAF         -1.7420    -0.0100     1.6720 ca         1 1ES      -0.122000
      8 CAD         -2.6820    -0.0160     0.6670 ca         1 1ES      -0.097000
      9 CAC         -2.2950    -0.0210    -0.6660 ca         1 1ES      -0.128000
     10 CAE         -0.9700     0.0010    -1.0030 ca         1 1ES      -0.105000
     11 CAI          2.3610    -0.0000    -1.2120 c3         1 1ES      -0.008200
     12 CAH          2.5640     1.4370    -1.6970 c3         1 1ES       0.086800
     13 NAB          3.4370     1.4370    -2.8780 nz         1 1ES      -0.812600
     14 H1           1.8460     0.0060     3.8970 h1         1 1ES       0.061033
     15 H2           0.3220    -0.8900     3.9470 h1         1 1ES       0.061033
     16 H3           0.3090     0.8790     3.9490 h1         1 1ES       0.061033
     17 H4           2.8880    -0.0000     1.6180 h4         1 1ES       0.167000
     18 H5          -2.0550    -0.0060     2.7090 ha         1 1ES       0.141000
     19 H6          -3.7360    -0.0330     0.9180 ha         1 1ES       0.148000
     20 H7          -3.0470    -0.0260    -1.4450 ha         1 1ES       0.141000
     21 H8          -0.6740    -0.0030    -2.0450 ha         1 1ES       0.114000
     22 H9           3.3200    -0.4320    -0.9520 hc         1 1ES       0.062200
     23 H10          1.9030    -0.5860    -2.0000 hc         1 1ES       0.062200
     24 H11          3.0220     2.0230    -0.9090 hx         1 1ES       0.114700
     25 H12          1.6050     1.8690    -1.9570 hx         1 1ES       0.114700
     26 H13          4.3260     1.0460    -2.6360 hn         1 1ES       0.453467
     27 H14          3.5630     2.3770    -3.1990 hn         1 1ES       0.453467
     28 HAB3         3.0180     0.8900    -3.6030 hn         1 1ES       0.453467
@<TRIPOS>BOND
     1     3     4 1   
     2     4     5 1   
     3     4     6 1   
     4     5     2 2   
     5     7     6 ar  
     6     7     8 ar  
     7     6     1 ar  
     8     8     9 ar  
     9     2     1 1   
    10     2    11 1   
    11     1    10 ar  
    12    12    11 1   
    13    12    13 1   
    14     9    10 ar  
    15     3    14 1   
    16     3    15 1   
    17     3    16 1   
    18     5    17 1   
    19     7    18 1   
    20     8    19 1   
    21     9    20 1   
    22    10    21 1   
    23    11    22 1   
    24    11    23 1   
    25    12    24 1   
    26    12    25 1   
    27    13    26 1   
    28    13    27 1   
    29    28    13 1   
@<TRIPOS>SUBSTRUCTURE
     1 1ES         1 TEMP              0 ****  ****    0 ROOT
