@<TRIPOS>MOLECULE
molecule
   58    60     1     0     0
SMALL
bcc


@<TRIPOS>ATOM
      1 N22          0.0000     0.0000     0.0000 nv         1 1ET      -1.045000
      2 C22          1.3900     0.0000     0.0000 ca         1 1ET       0.704700
      3 C23          2.0800     0.0000     1.2080 ca         1 1ET      -0.284800
      4 C24          3.4620    -0.0010     1.1920 ca         1 1ET      -0.017300
      5 C27          4.2480    -0.0020     2.4790 c3         1 1ET      -0.052800
      6 C25          4.1120    -0.0000    -0.0350 ca         1 1ET      -0.287300
      7 N21          2.0460    -0.0050    -1.1500 nb         1 1ET      -0.752500
      8 C26          3.3650    -0.0010    -1.1950 ca         1 1ET       0.446100
      9 C28          4.0640     0.0010    -2.5300 c3         1 1ET      -0.115700
     10 C29          3.5680    -1.1820    -3.3670 c3         1 1ET      -0.039100
     11 C15          4.2670    -1.1800    -4.7010 ca         1 1ET      -0.059800
     12 C14          5.4560    -1.8680    -4.8580 ca         1 1ET      -0.113500
     13 C13          6.0970    -1.8660    -6.0830 ca         1 1ET      -0.195300
     14 C17          7.3940    -2.6150    -6.2550 c3         1 1ET       0.159100
     15 N18          7.1120    -3.9920    -6.6800 nz         1 1ET      -0.809600
     16 C12          5.5490    -1.1800    -7.1510 ca         1 1ET      -0.113500
     17 C16          3.7160    -0.4990    -5.7700 ca         1 1ET      -0.073000
     18 C11          4.3600    -0.4930    -6.9930 ca         1 1ET      -0.059800
     19 C09          3.7620     0.2560    -8.1550 c3         1 1ET      -0.039100
     20 C08          2.8270    -0.6720    -8.9330 c3         1 1ET      -0.115700
     21 C06          2.2300     0.0770   -10.0970 ca         1 1ET       0.446100
     22 N01          1.5870     1.2090    -9.8810 nb         1 1ET      -0.752500
     23 C02          1.0470     1.9000   -10.8730 ca         1 1ET       0.704700
     24 N02          0.3790     3.0890   -10.6000 nv         1 1ET      -1.045000
     25 C03          1.1420     1.4490   -12.1860 ca         1 1ET      -0.284800
     26 C04          1.8100     0.2650   -12.4420 ca         1 1ET      -0.017300
     27 C05          2.3670    -0.4270   -11.3740 ca         1 1ET      -0.287300
     28 C07          1.9350    -0.2600   -13.8490 c3         1 1ET      -0.052800
     29 H1          -0.5000     0.8620    -0.0890 hn         1 1ET       0.441800
     30 H2          -0.5000    -0.8640     0.0640 hn         1 1ET       0.441800
     31 H3           1.5480     0.1790     2.1350 ha         1 1ET       0.147500
     32 H4           3.5890    -0.2450     3.3040 hc         1 1ET       0.051200
     33 H5           5.0390    -0.7400     2.4190 hc         1 1ET       0.051200
     34 H6           4.6800     0.9780     2.6390 hc         1 1ET       0.051200
     35 H7           5.1950     0.0010    -0.0810 ha         1 1ET       0.132000
     36 H8           5.1330    -0.0880    -2.3790 hc         1 1ET       0.053700
     37 H9           3.8480     0.9260    -3.0500 hc         1 1ET       0.053700
     38 H10          2.4990    -1.0930    -3.5190 hc         1 1ET       0.072200
     39 H11          3.7830    -2.1070    -2.8470 hc         1 1ET       0.072200
     40 H12          5.9040    -2.3760    -4.0130 ha         1 1ET       0.134000
     41 H13          7.9300    -2.6300    -5.3140 hx         1 1ET       0.110200
     42 H14          7.9990    -2.1210    -7.0070 hx         1 1ET       0.110200
     43 H15          7.9500    -4.5360    -6.6250 hn         1 1ET       0.453133
     44 H16          6.4160    -4.3900    -6.0810 hn         1 1ET       0.453133
     45 H18          6.0530    -1.1770    -8.1100 ha         1 1ET       0.134000
     46 H19          2.7840     0.0400    -5.6460 ha         1 1ET       0.167000
     47 H20          4.5540     0.6010    -8.8080 hc         1 1ET       0.072200
     48 H21          3.2020     1.1070    -7.7870 hc         1 1ET       0.072200
     49 H22          3.3880    -1.5230    -9.3010 hc         1 1ET       0.053700
     50 H23          2.0350    -1.0160    -8.2800 hc         1 1ET       0.053700
     51 H24         -0.0290     3.6160   -11.3470 hn         1 1ET       0.441800
     52 H25          0.3030     3.4150    -9.6570 hn         1 1ET       0.441800
     53 H26          0.6970     2.0150   -12.9950 ha         1 1ET       0.147500
     54 H27          2.8970    -1.3570   -11.5420 ha         1 1ET       0.132000
     55 H28          2.9830    -0.3520   -14.1090 hc         1 1ET       0.051200
     56 H29          1.4520     0.4260   -14.5350 hc         1 1ET       0.051200
     57 H30          1.4600    -1.2310   -13.9160 hc         1 1ET       0.051200
     58 H183         6.7750    -3.9880    -7.6220 hn         1 1ET       0.453133
@<TRIPOS>BOND
     1    28    26 1   
     2    26    25 ar  
     3    26    27 ar  
     4    25    23 ar  
     5    27    21 ar  
     6    23    24 1   
     7    23    22 ar  
     8    21    22 ar  
     9    21    20 1   
    10    19    18 1   
    11    19    20 1   
    12    18    16 ar  
    13    18    17 ar  
    14    16    13 ar  
    15    17    11 ar  
    16    13    14 1   
    17    13    12 ar  
    18     9    10 1   
    19     9     8 1   
    20    14    15 1   
    21    11    12 ar  
    22    11    10 1   
    23     6     8 ar  
    24     6     4 ar  
    25     8     7 ar  
    26     5     4 1   
    27     4     3 ar  
    28     7     2 ar  
    29     3     2 ar  
    30     2     1 1   
    31     1    29 1   
    32     1    30 1   
    33     3    31 1   
    34     5    32 1   
    35     5    33 1   
    36     5    34 1   
    37     6    35 1   
    38     9    36 1   
    39     9    37 1   
    40    10    38 1   
    41    10    39 1   
    42    12    40 1   
    43    14    41 1   
    44    14    42 1   
    45    15    43 1   
    46    15    44 1   
    47    16    45 1   
    48    17    46 1   
    49    19    47 1   
    50    19    48 1   
    51    20    49 1   
    52    20    50 1   
    53    24    51 1   
    54    24    52 1   
    55    25    53 1   
    56    27    54 1   
    57    28    55 1   
    58    28    56 1   
    59    28    57 1   
    60    58    15 1   
@<TRIPOS>SUBSTRUCTURE
     1 1ET         1 TEMP              0 ****  ****    0 ROOT
