@<TRIPOS>MOLECULE
1ET
   58    60     1     0     0
SMALL
bcc


@<TRIPOS>ATOM
      1 N22          1.2230     1.4460     1.5900 nv         1 1ET      -0.930000
      2 C22          2.1060     0.6840     0.8130 ca         1 1ET       0.644200
      3 C23          2.0190    -0.7430     0.8620 ca         1 1ET      -0.294800
      4 C24          2.8260    -1.4990     0.0190 ca         1 1ET       0.004700
      5 C27          2.7580    -2.9780     0.0270 c3         1 1ET      -0.065800
      6 C25          3.7060    -0.8380    -0.8510 ca         1 1ET      -0.290300
      7 N21          2.9780     1.3290    -0.0240 nb         1 1ET      -0.747500
      8 C26          3.7430     0.5670    -0.8390 ca         1 1ET       0.436600
      9 C28          4.6940     1.2690    -1.7710 c3         1 1ET      -0.121200
     10 C29          3.9410     1.9400    -2.9080 c3         1 1ET      -0.048100
     11 C15          4.8370     2.8110    -3.7180 ca         1 1ET      -0.054300
     12 C14          5.3120     4.0120    -3.1780 ca         1 1ET      -0.108000
     13 C13          6.1430     4.8400    -3.9390 ca         1 1ET      -0.197300
     14 C17          6.6670     6.1020    -3.3530 c3         1 1ET       0.178100
     15 N18          5.7590     7.2530    -3.6870 nz         1 1ET      -0.845600
     16 C12          6.5060     4.4750    -5.2400 ca         1 1ET      -0.108000
     17 C16          5.2010     2.4540    -5.0210 ca         1 1ET      -0.081000
     18 C11          6.0350     3.2790    -5.7870 ca         1 1ET      -0.054300
     19 C09          6.4250     2.8820    -7.1690 c3         1 1ET      -0.048100
     20 C08          5.2700     3.0520    -8.1420 c3         1 1ET      -0.121200
     21 C06          5.7080     2.7540    -9.5510 ca         1 1ET       0.436600
     22 N01          6.5210     3.6470   -10.1620 nb         1 1ET      -0.747500
     23 C02          6.9270     3.3640   -11.4400 ca         1 1ET       0.644200
     24 N02          7.8550     4.2100   -12.0590 nv         1 1ET      -0.930000
     25 C03          6.4880     2.1900   -12.1300 ca         1 1ET      -0.294800
     26 C04          5.6440     1.2970   -11.4790 ca         1 1ET       0.004700
     27 C05          5.2440     1.5780   -10.1640 ca         1 1ET      -0.290300
     28 C07          5.1790     0.0630   -12.1520 c3         1 1ET      -0.065800
     29 H1           0.9120     0.9910     2.4180 hn         1 1ET       0.408800
     30 H2           1.4500     2.4070     1.7080 hn         1 1ET       0.408800
     31 H3           1.3170    -1.2340     1.5500 ha         1 1ET       0.149000
     32 H4           2.2810    -3.3580     0.9640 hc         1 1ET       0.055200
     33 H5           2.1510    -3.3330    -0.8440 hc         1 1ET       0.055200
     34 H6           3.7810    -3.4210    -0.0560 hc         1 1ET       0.055200
     35 H7           4.3550    -1.4110    -1.5250 ha         1 1ET       0.142500
     36 H8           5.4210     0.5230    -2.1860 hc         1 1ET       0.054950
     37 H9           5.2870     2.0360    -1.2040 hc         1 1ET       0.054950
     38 H10          3.1060     2.5660    -2.4890 hc         1 1ET       0.072450
     39 H11          3.4730     1.1540    -3.5580 hc         1 1ET       0.072450
     40 H12          5.0380     4.2840    -2.1470 ha         1 1ET       0.142000
     41 H13          7.6890     6.3480    -3.7660 hx         1 1ET       0.111200
     42 H14          6.7290     6.0360    -2.2280 hx         1 1ET       0.111200
     43 H15          5.6820     7.3460    -4.7060 hn         1 1ET       0.456800
     44 H16          4.8220     7.0730    -3.3110 hn         1 1ET       0.456800
     45 H18          7.1770     5.1170    -5.8320 ha         1 1ET       0.142000
     46 H19          4.8320     1.5080    -5.4530 ha         1 1ET       0.159000
     47 H20          6.7550     1.8070    -7.1670 hc         1 1ET       0.072450
     48 H21          7.3000     3.4960    -7.5130 hc         1 1ET       0.072450
     49 H22          4.8730     4.1010    -8.0810 hc         1 1ET       0.054950
     50 H23          4.4340     2.3590    -7.8600 hc         1 1ET       0.054950
     51 H24          7.9740     5.1130   -11.6590 hn         1 1ET       0.408800
     52 H25          7.8220     4.1970   -13.0530 hn         1 1ET       0.408800
     53 H26          6.8210     1.9930   -13.1590 ha         1 1ET       0.149000
     54 H27          4.5780     0.8900    -9.6280 ha         1 1ET       0.142500
     55 H28          5.7950    -0.8080   -11.8100 hc         1 1ET       0.055200
     56 H29          4.1090    -0.1450   -11.9020 hc         1 1ET       0.055200
     57 H30          5.2760     0.1460   -13.2620 hc         1 1ET       0.055200
     58 H183         6.1220     8.1230    -3.2930 hn         1 1ET       0.456800
@<TRIPOS>BOND
     1     1     2 1   
     2     1    29 1   
     3     1    30 1   
     4     2     3 ar  
     5     2     7 ar  
     6     3     4 ar  
     7     3    31 1   
     8     4     5 1   
     9     4     6 ar  
    10     5    32 1   
    11     5    33 1   
    12     5    34 1   
    13     6     8 ar  
    14     6    35 1   
    15     7     8 ar  
    16     8     9 1   
    17     9    10 1   
    18     9    36 1   
    19     9    37 1   
    20    10    11 1   
    21    10    38 1   
    22    10    39 1   
    23    11    12 ar  
    24    11    17 ar  
    25    12    13 ar  
    26    12    40 1   
    27    13    14 1   
    28    13    16 ar  
    29    14    15 1   
    30    14    41 1   
    31    14    42 1   
    32    15    43 1   
    33    15    44 1   
    34    15    58 1   
    35    16    18 ar  
    36    16    45 1   
    37    17    18 ar  
    38    17    46 1   
    39    18    19 1   
    40    19    20 1   
    41    19    47 1   
    42    19    48 1   
    43    20    21 1   
    44    20    49 1   
    45    20    50 1   
    46    21    22 ar  
    47    21    27 ar  
    48    22    23 ar  
    49    23    24 1   
    50    23    25 ar  
    51    24    51 1   
    52    24    52 1   
    53    25    26 ar  
    54    25    53 1   
    55    26    27 ar  
    56    26    28 1   
    57    27    54 1   
    58    28    55 1   
    59    28    56 1   
    60    28    57 1   
@<TRIPOS>SUBSTRUCTURE
     1 1ET         1 TEMP              0 ****  ****    0 ROOT
