@<TRIPOS>MOLECULE
1EU
   42    44     1     0     0
SMALL
bcc


@<TRIPOS>ATOM
      1 C1           2.5580     0.6760    -0.6010 c3         1 1EU      -0.138100
      2 C2           2.8640     0.7970     0.8750 c3         1 1EU       0.107800
      3 N3           1.6950     0.4130     1.7320 ny         1 1EU      -0.691800
      4 C4           1.9410     0.7730     3.2060 c          1 1EU       0.640100
      5 O5           1.2160     1.6640     3.6290 o          1 1EU      -0.394100
      6 N6           2.8950     0.0360     3.9390 ns         1 1EU      -0.358400
      7 C7           4.0490     0.8230     4.2700 cc         1 1EU       0.334400
      8 N8           4.4220     1.1150     5.6010 na         1 1EU      -0.214300
      9 C9           5.5610     1.9160     5.5030 ca         1 1EU      -0.057200
     10 C10          6.3790     2.5040     6.4800 ca         1 1EU      -0.104000
     11 C11          7.4510     3.2750     6.0430 cp         1 1EU       0.017000
     12 C12          7.7070     3.4570     4.6570 ca         1 1EU      -0.087000
     13 C13          6.9170     2.8900     3.6710 ca         1 1EU      -0.105600
     14 C14          7.1780     3.1170     2.2290 c          1 1EU       0.587700
     15 O15          6.2700     3.1000     1.3910 o          1 1EU      -0.527100
     16 C16          8.6010     3.3710     1.8470 c3         1 1EU      -0.202100
     17 C17          5.8240     2.0940     4.0840 ca         1 1EU       0.100400
     18 N18          4.8700     1.3990     3.3400 nd         1 1EU      -0.561100
     19 C20          8.3250     3.9180     7.0170 cp         1 1EU      -0.191300
     20 C21          9.7170     3.9610     6.8410 ca         1 1EU      -0.073000
     21 C22         10.5030     4.5840     7.8080 ca         1 1EU      -0.240300
     22 C23          9.8700     5.1510     8.9310 ca         1 1EU       0.417200
     23 N24          8.5360     5.1240     9.1180 nb         1 1EU      -0.653000
     24 C25          7.7870     4.5190     8.1790 ca         1 1EU       0.416200
     25 H1           1.7190     1.3480    -0.9100 hc         1 1EU       0.081033
     26 H1A          2.3110    -0.3740    -0.8920 hc         1 1EU       0.081033
     27 H1B          3.4760     0.9890    -1.1640 hc         1 1EU       0.081033
     28 H2           3.7320     0.1310     1.1490 hx         1 1EU       0.125700
     29 H2A          3.1450     1.8630     1.1300 hx         1 1EU       0.125700
     30 HN3          1.5000    -0.5860     1.6240 hn         1 1EU       0.457800
     31 HN6          3.1560    -0.8590     3.5580 hn         1 1EU       0.327500
     32 H10          6.1800     2.3590     7.5520 ha         1 1EU       0.162000
     33 H12          8.5640     4.0900     4.3700 ha         1 1EU       0.157000
     34 H16          9.2860     2.6800     2.3940 hc         1 1EU       0.074367
     35 H16A         8.8720     4.4270     2.1020 hc         1 1EU       0.074367
     36 H16B         8.7380     3.2290     0.7460 hc         1 1EU       0.074367
     37 H21         10.1820     3.5000     5.9570 ha         1 1EU       0.141000
     38 H22         11.5960     4.6330     7.7040 ha         1 1EU       0.157000
     39 H23         10.4570     5.6540     9.7220 h4         1 1EU       0.038100
     40 H25          6.6970     4.5250     8.3580 h4         1 1EU       0.024100
     41 HN8          3.9800     0.7970     6.4260 hn         1 1EU       0.335700
     42 H32          0.8650     0.9370     1.4210 hn         1 1EU       0.457800
@<TRIPOS>BOND
     1     1     2 1   
     2     1    25 1   
     3     1    26 1   
     4     1    27 1   
     5     2     3 1   
     6     2    28 1   
     7     2    29 1   
     8     3     4 1   
     9     3    30 1   
    10     3    42 1   
    11     4     5 2   
    12     4     6 1   
    13     6     7 1   
    14     6    31 1   
    15     7     8 1   
    16     7    18 2   
    17     8     9 1   
    18     8    41 1   
    19     9    10 ar  
    20     9    17 ar  
    21    10    11 ar  
    22    10    32 1   
    23    11    12 ar  
    24    11    19 1   
    25    12    13 ar  
    26    12    33 1   
    27    13    14 1   
    28    13    17 ar  
    29    14    15 2   
    30    14    16 1   
    31    16    34 1   
    32    16    35 1   
    33    16    36 1   
    34    17    18 1   
    35    19    20 ar  
    36    19    24 ar  
    37    20    21 ar  
    38    20    37 1   
    39    21    22 ar  
    40    21    38 1   
    41    22    23 ar  
    42    22    39 1   
    43    23    24 ar  
    44    24    40 1   
@<TRIPOS>SUBSTRUCTURE
     1 1EU         1 TEMP              0 ****  ****    0 ROOT
