@<TRIPOS>MOLECULE
1EU
   41    43     1     0     0
SMALL
bcc


@<TRIPOS>ATOM
      1 C1           0.0000     0.0000     0.0000 c3         1 1EU      -0.008100
      2 C2           1.5290     0.0000     0.0000 c3         1 1EU       0.063000
      3 N3           2.0190     0.0000     1.3810 ns         1 1EU      -0.197900
      4 C4           3.3440     0.0010     1.6270 c          1 1EU       0.563100
      5 O5           4.1340     0.0010     0.7020 o          1 1EU      -0.726100
      6 N6           3.7930     0.0000     2.8970 ns         1 1EU      -0.007400
      7 C7           5.1520     0.0010     3.1490 cc         1 1EU       0.162400
      8 N8           6.1260     0.0060     2.1950 na         1 1EU       0.253700
      9 C9           7.3440     0.0050     2.8580 ca         1 1EU      -0.295200
     10 C10          8.6610     0.0100     2.4390 ca         1 1EU      -0.039000
     11 C11          9.6950     0.0070     3.3740 cp         1 1EU      -0.056000
     12 C12          9.4130     0.0000     4.7370 ca         1 1EU      -0.066000
     13 C13          8.0890    -0.0040     5.1780 ca         1 1EU      -0.137600
     14 C14          7.7910    -0.0100     6.6130 c          1 1EU       0.609700
     15 O15          6.6380    -0.0140     6.9920 o          1 1EU      -0.532100
     16 C16          8.9150    -0.0130     7.6160 c3         1 1EU      -0.094100
     17 C17          7.0380    -0.0010     4.2310 ca         1 1EU       0.145400
     18 N18          5.6980     0.0010     4.3420 nd         1 1EU      -0.546100
     19 C20         11.1050     0.0110     2.9140 cp         1 1EU      -0.136300
     20 C21         11.4070     0.0170     1.5490 ca         1 1EU      -0.076000
     21 C22         12.7390     0.0210     1.1710 ca         1 1EU      -0.214300
     22 C23         13.7190     0.0180     2.1470 ca         1 1EU       0.397200
     23 N24         13.4040     0.0130     3.4280 nb         1 1EU      -0.576000
     24 C25         12.1510     0.0140     3.8350 ca         1 1EU       0.398200
     25 H1          -0.3610    -0.8850     0.5100 hc         1 1EU       0.010033
     26 H1A         -0.3610     0.0000    -1.0210 hc         1 1EU       0.010033
     27 H1B         -0.3610     0.8840     0.5110 hc         1 1EU       0.010033
     28 H2           1.8900    -0.8840    -0.5110 h1         1 1EU       0.026700
     29 H2A          1.8900     0.8840    -0.5110 h1         1 1EU       0.026700
     30 HN3          1.3690    -0.0010     2.1420 hn         1 1EU       0.174500
     31 HN6          3.1420    -0.0060     3.6570 hn         1 1EU       0.182500
     32 H10          8.8900     0.0150     1.3800 ha         1 1EU       0.108000
     33 H12         10.2230    -0.0020     5.4560 ha         1 1EU       0.120000
     34 H16          9.5230     0.8730     7.4800 hc         1 1EU       0.023367
     35 H16A         8.5040    -0.0180     8.6190 hc         1 1EU       0.023367
     36 H16B         9.5260    -0.8960     7.4720 hc         1 1EU       0.023367
     37 H21         10.6190     0.0190     0.8060 ha         1 1EU       0.115000
     38 H22         13.0100     0.0250     0.1220 ha         1 1EU       0.112000
     39 H23         14.7620     0.0190     1.8540 h4         1 1EU      -0.020900
     40 H25         11.9320     0.0100     4.8960 h4         1 1EU      -0.013900
     41 HN8          5.9890     0.1620     1.2160 hn         1 1EU       0.184700
@<TRIPOS>BOND
     1     1     2 1   
     2     1    25 1   
     3     1    26 1   
     4     1    27 1   
     5     2     3 1   
     6     2    28 1   
     7     2    29 1   
     8     3     4 1   
     9     3    30 1   
    10     4     5 2   
    11     4     6 1   
    12     6     7 1   
    13     6    31 1   
    14     7     8 1   
    15     7    18 2   
    16     8     9 1   
    17     8    41 1   
    18     9    10 ar  
    19     9    17 ar  
    20    10    11 ar  
    21    10    32 1   
    22    11    12 ar  
    23    11    19 1   
    24    12    13 ar  
    25    12    33 1   
    26    13    14 1   
    27    13    17 ar  
    28    14    15 2   
    29    14    16 1   
    30    16    34 1   
    31    16    35 1   
    32    16    36 1   
    33    17    18 1   
    34    19    20 ar  
    35    19    24 ar  
    36    20    21 ar  
    37    20    37 1   
    38    21    22 ar  
    39    21    38 1   
    40    22    23 ar  
    41    22    39 1   
    42    23    24 ar  
    43    24    40 1   
@<TRIPOS>SUBSTRUCTURE
     1 1EU         1 TEMP              0 ****  ****    0 ROOT
