@<TRIPOS>MOLECULE
1EV
   53    58     1     0     0
SMALL
bcc


@<TRIPOS>ATOM
      1 N10         -1.2880    -0.0190    -2.2210 n1         1 1EV      -0.075000
      2 C10         -0.7190     0.0000    -1.2380 c1         1 1EV      -0.085000
      3 C11          0.0000     0.0000     0.0000 ca         1 1EV       0.023000
      4 C16          1.3960     0.0000     0.0000 ca         1 1EV      -0.070000
      5 C12         -0.6910     0.0070     1.2120 ca         1 1EV      -0.080000
      6 C13          0.0080     0.0130     2.4020 ca         1 1EV      -0.041000
      7 C09         -0.7380     0.0270     3.7120 c3         1 1EV      -0.284000
      8 C08         -0.9890     1.4730     4.1400 DU         1 1EV      -0.265000
      9 C06         -1.7340     1.4870     5.4500 c3         1 1EV       0.175000
     10 N01         -2.8740     0.8310     5.5580 n2         1 1EV      -0.217000
     11 C02         -3.5610     0.8150     6.6900 c2         1 1EV       0.024000
     12 N02         -4.7580     0.1100     6.7590 n8         1 1EV       0.075000
     13 C03         -3.0980     1.4990     7.8090 c2         1 1EV      -0.272000
     14 C04         -1.9060     2.1960     7.7260 c2         1 1EV       0.031000
     15 C05         -1.2130     2.1820     6.5230 c2         1 1EV      -0.265000
     16 C07         -1.3690     2.9480     8.9160 c3         1 1EV      -0.068000
     17 C14          1.3910     0.0130     2.3940 ca         1 1EV      -0.088000
     18 C15          2.0820     0.0000     1.1960 ca         1 1EV      -0.049000
     19 C29          3.5900    -0.0010     1.1990 c3         1 1EV      -0.038000
     20 C28          4.0990    -1.4440     1.2130 c3         1 1EV      -0.284000
     21 C26          5.6060    -1.4440     1.2150 c3         1 1EV      -0.045000
     22 N21          6.2590    -0.7920     0.2730 n2         1 1EV      -0.196000
     23 C22          7.5820    -0.7650     0.2370 c2         1 1EV       0.020000
     24 N22          8.2290    -0.0640    -0.7750 n8         1 1EV       0.085000
     25 C23          8.3310    -1.4320     1.2010 c2         1 1EV      -0.253000
     26 C24          7.6740    -2.1250     2.2010 c2         1 1EV       0.030000
     27 C27          8.4480    -2.8600     3.2650 c3         1 1EV      -0.069000
     28 C25          6.2850    -2.1230     2.2070 c2         1 1EV      -0.245000
     29 H1           1.9380    -0.0710    -0.9360 ha         1 1EV       0.117000
     30 H2          -1.7680    -0.1110     1.2210 ha         1 1EV       0.118000
     31 H3          -0.1410     0.5310     4.4620 DU         1 1EV       0.169000
     32 H4          -0.9300    -0.9920     4.0290 hc         1 1EV       0.149000
     33 H5          -1.9910     1.5620     4.5430 DU         1 1EV       0.100000
     34 H6          -0.8870     2.1260     3.2810 ha         1 1EV       0.167000
     35 H7          -5.0950    -0.3830     5.9560 hn         1 1EV       0.067000
     36 H8          -5.2790     0.0920     7.6130 hn         1 1EV       0.067000
     37 H9          -3.6680     1.4800     8.7300 ha         1 1EV       0.122000
     38 H10         -0.2750     2.7130     6.4220 ha         1 1EV       0.131000
     39 H11         -1.7420     2.4970     9.8280 hc         1 1EV       0.050667
     40 H12         -0.2860     2.9080     8.9110 hc         1 1EV       0.050667
     41 H13         -1.6920     3.9810     8.8670 hc         1 1EV       0.050667
     42 H14          1.9380     0.0170     3.3290 ha         1 1EV       0.109000
     43 H15          3.9530     0.5240     0.3230 hc         1 1EV       0.057500
     44 H16          3.9500     0.4950     2.0920 hc         1 1EV       0.057500
     45 H17          5.0300    -1.5040     0.6620 DU         1 1EV       0.285000
     46 H18          4.2650    -1.7580     2.2370 hc         1 1EV       0.100000
     47 H19          9.2290    -0.0630    -0.8230 hn         1 1EV       0.069000
     48 H20          7.6960     0.4530    -1.4460 hn         1 1EV       0.069000
     49 H21          9.4130    -1.4030     1.1620 ha         1 1EV       0.124000
     50 H22          7.9990    -3.8320     3.4330 hc         1 1EV       0.053667
     51 H23          9.4750    -2.9870     2.9420 hc         1 1EV       0.053667
     52 H24          8.4280    -2.2900     4.1860 hc         1 1EV       0.053667
     53 H25          5.7350    -2.6510     2.9770 ha         1 1EV       0.136000
@<TRIPOS>BOND
     1     1     2 1   
     2     2     3 1   
     3     3     4 1   
     4     3     5 1   
     5     4    18 1   
     6     4    29 1   
     7     5     6 1   
     8     5    30 1   
     9     6     7 1   
    10     6    17 1   
    11     7     8 1   
    12     7    31 1   
    13     7    32 1   
    14     8     9 1   
    15     8    31 1   
    16     8    33 1   
    17     8    34 1   
    18     9    10 1   
    19     9    15 1   
    20     9    33 1   
    21    10    11 1   
    22    11    12 1   
    23    11    13 1   
    24    12    35 1   
    25    12    36 1   
    26    13    14 1   
    27    13    37 1   
    28    14    15 1   
    29    14    16 1   
    30    15    38 1   
    31    16    39 1   
    32    16    40 1   
    33    16    41 1   
    34    17    18 1   
    35    17    42 1   
    36    18    19 1   
    37    19    20 1   
    38    19    43 1   
    39    19    44 1   
    40    20    21 1   
    41    20    45 1   
    42    20    46 1   
    43    21    22 1   
    44    21    28 1   
    45    21    45 1   
    46    22    23 1   
    47    23    24 1   
    48    23    25 1   
    49    24    47 1   
    50    24    48 1   
    51    25    26 1   
    52    25    49 1   
    53    26    27 1   
    54    26    28 1   
    55    27    50 1   
    56    27    51 1   
    57    27    52 1   
    58    28    53 1   
@<TRIPOS>SUBSTRUCTURE
     1 1EV         1 TEMP              0 ****  ****    0 ROOT
