@<TRIPOS>MOLECULE
molecule
   53    55     1     0     0
SMALL
bcc


@<TRIPOS>ATOM
      1 N10         -1.2880    -0.0190    -2.2210 n1         1 1EV      -0.380800
      2 C10         -0.7190     0.0000    -1.2380 cg         1 1EV       0.248800
      3 C11          0.0000     0.0000     0.0000 ca         1 1EV      -0.028000
      4 C16          1.3960     0.0000     0.0000 ca         1 1EV      -0.089500
      5 C12         -0.6910     0.0070     1.2120 ca         1 1EV      -0.089500
      6 C13          0.0080     0.0130     2.4020 ca         1 1EV      -0.056300
      7 C09         -0.7380     0.0270     3.7120 c3         1 1EV      -0.129600
      8 C08         -0.9890     1.4730     4.1400 c3         1 1EV      -0.329200
      9 C06         -1.7340     1.4870     5.4500 ca         1 1EV       0.498600
     10 N01         -2.8740     0.8310     5.5580 nb         1 1EV      -0.834000
     11 C02         -3.5610     0.8150     6.6900 ca         1 1EV       0.725700
     12 N02         -4.7580     0.1100     6.7590 nv         1 1EV      -1.008500
     13 C03         -3.0980     1.4990     7.8090 ca         1 1EV      -0.334300
     14 C04         -1.9060     2.1960     7.7260 ca         1 1EV       0.012700
     15 C05         -1.2130     2.1820     6.5230 ca         1 1EV      -0.322300
     16 C07         -1.3690     2.9480     8.9160 c3         1 1EV      -0.052300
     17 C14          1.3910     0.0130     2.3940 ca         1 1EV      -0.109000
     18 C15          2.0820     0.0000     1.1960 ca         1 1EV      -0.056300
     19 C29          3.5900    -0.0010     1.1990 c3         1 1EV      -0.129600
     20 C28          4.0990    -1.4440     1.2130 c3         1 1EV      -0.329200
     21 C26          5.6060    -1.4440     1.2150 ca         1 1EV       0.498600
     22 N21          6.2590    -0.7920     0.2730 nb         1 1EV      -0.834000
     23 C22          7.5820    -0.7650     0.2370 ca         1 1EV       0.725700
     24 N22          8.2290    -0.0640    -0.7750 nv         1 1EV      -1.008500
     25 C23          8.3310    -1.4320     1.2010 ca         1 1EV      -0.334300
     26 C24          7.6740    -2.1250     2.2010 ca         1 1EV       0.012700
     27 C27          8.4480    -2.8600     3.2650 c3         1 1EV      -0.052300
     28 C25          6.2850    -2.1230     2.2070 ca         1 1EV      -0.322300
     29 H1           1.9380    -0.0710    -0.9360 ha         1 1EV       0.143500
     30 H2          -1.7680    -0.1110     1.2210 ha         1 1EV       0.143500
     31 H3          -0.1410     0.5310     4.4620 hc         1 1EV       0.094700
     32 H4          -0.9300    -0.9920     4.0290 hc         1 1EV       0.094700
     33 H5          -1.9910     1.5620     4.5430 hc         1 1EV       0.163950
     34 H6          -0.8870     2.1260     3.2810 hc         1 1EV       0.163950
     35 H7          -5.0950    -0.3830     5.9560 hn         1 1EV       0.442300
     36 H8          -5.2790     0.0920     7.6130 hn         1 1EV       0.442300
     37 H9          -3.6680     1.4800     8.7300 ha         1 1EV       0.138500
     38 H10         -0.2750     2.7130     6.4220 ha         1 1EV       0.151000
     39 H11         -1.7420     2.4970     9.8280 hc         1 1EV       0.050700
     40 H12         -0.2860     2.9080     8.9110 hc         1 1EV       0.050700
     41 H13         -1.6920     3.9810     8.8670 hc         1 1EV       0.050700
     42 H14          1.9380     0.0170     3.3290 ha         1 1EV       0.132000
     43 H15          3.9530     0.5240     0.3230 hc         1 1EV       0.094700
     44 H16          3.9500     0.4950     2.0920 hc         1 1EV       0.094700
     45 H17          5.0300    -1.5040     0.6620 hc         1 1EV       0.163950
     46 H18          4.2650    -1.7580     2.2370 hc         1 1EV       0.163950
     47 H19          9.2290    -0.0630    -0.8230 hn         1 1EV       0.442300
     48 H20          7.6960     0.4530    -1.4460 hn         1 1EV       0.442300
     49 H21          9.4130    -1.4030     1.1620 ha         1 1EV       0.138500
     50 H22          7.9990    -3.8320     3.4330 hc         1 1EV       0.050700
     51 H23          9.4750    -2.9870     2.9420 hc         1 1EV       0.050700
     52 H24          8.4280    -2.2900     4.1860 hc         1 1EV       0.050700
     53 H25          5.7350    -2.6510     2.9770 ha         1 1EV       0.151000
@<TRIPOS>BOND
     1    16    14 1
     2    14    13 ar
     3    14    15 ar
     4    13    11 ar
     5    15     9 ar
     6    11    12 1
     7    11    10 ar
     8     9    10 ar
     9     9     8 1
    10     7     8 1
    11     7     6 1
    12     6    17 ar
    13     6     5 ar
    14    17    18 ar
    15     5     3 ar
    16    18    19 1
    17    18     4 ar
    18    19    20 1
    19     3     4 ar
    20     3     2 1
    21     2     1 3
    22    20    21 1
    23    22    21 ar
    24    22    23 ar
    25    21    28 ar
    26    24    23 1
    27    23    25 ar
    28    28    26 ar
    29    25    26 ar
    30    26    27 1
    31     4    29 1
    32     5    30 1
    33     7    31 1
    34     7    32 1
    35     8    33 1
    36     8    34 1
    37    12    35 1
    38    12    36 1
    39    13    37 1
    40    15    38 1
    41    16    39 1
    42    16    40 1
    43    16    41 1
    44    17    42 1
    45    19    43 1
    46    19    44 1
    47    20    45 1
    48    20    46 1
    49    24    47 1
    50    24    48 1
    51    25    49 1
    52    27    50 1
    53    27    51 1
    54    27    52 1
    55    28    53 1
@<TRIPOS>SUBSTRUCTURE
     1 1EV         1 TEMP              0 ****  ****    0 ROOT
