@<TRIPOS>MOLECULE
1EV
   53    55     1     0     0
SMALL
bcc


@<TRIPOS>ATOM
      1 N10         -1.2500     0.0250    -2.5940 n1         1 1EV      -0.368800
      2 C10         -0.7170    -0.0380    -1.5620 cg         1 1EV       0.235800
      3 C11         -0.0650    -0.1140    -0.3000 ca         1 1EV      -0.017000
      4 C16          1.3310    -0.2110    -0.2420 ca         1 1EV      -0.093500
      5 C12         -0.8230    -0.0930     0.8790 ca         1 1EV      -0.093500
      6 C13         -0.1820    -0.1690     2.1180 ca         1 1EV      -0.080800
      7 C09         -0.9780    -0.1580     3.3780 c3         1 1EV      -0.035600
      8 C08         -0.9060     1.1960     4.0610 c3         1 1EV      -0.125700
      9 C06         -1.6030     1.1860     5.3950 ca         1 1EV       0.449100
     10 N01         -2.9270     0.9160     5.4230 nb         1 1EV      -0.731500
     11 C02         -3.5520     0.9100     6.6430 ca         1 1EV       0.633700
     12 N02         -4.9000     0.5230     6.7130 nv         1 1EV      -0.924500
     13 C03         -2.8540     1.2140     7.8520 ca         1 1EV      -0.300800
     14 C04         -1.4920     1.4960     7.7920 ca         1 1EV      -0.004800
     15 C05         -0.8500     1.4810     6.5470 ca         1 1EV      -0.292800
     16 C07         -0.7270     1.7960     9.0240 c3         1 1EV      -0.061800
     17 C14          1.2140    -0.2650     2.1710 ca         1 1EV      -0.104000
     18 C15          1.9740    -0.2850     0.9980 ca         1 1EV      -0.080800
     19 C29          3.4580    -0.3980     1.0610 c3         1 1EV      -0.035600
     20 C28          4.1240     0.9330     0.7590 c3         1 1EV      -0.125700
     21 C26          5.6220     0.8040     0.7150 ca         1 1EV       0.449100
     22 N21          6.2700     0.4620     1.8510 nb         1 1EV      -0.731500
     23 C22          7.6340     0.3440     1.7970 ca         1 1EV       0.633700
     24 N22          8.3200    -0.1180     2.9330 nv         1 1EV      -0.924500
     25 C23          8.3700     0.6070     0.6030 ca         1 1EV      -0.300800
     26 C24          7.6780     0.9660    -0.5510 ca         1 1EV      -0.004800
     27 C27          8.4020     1.2270    -1.8170 c3         1 1EV      -0.061800
     28 C25          6.2820     1.0650    -0.5020 ca         1 1EV      -0.292800
     29 H1           1.9230    -0.2310    -1.1700 ha         1 1EV       0.146000
     30 H2          -1.9200    -0.0190     0.8280 ha         1 1EV       0.146000
     31 H3          -0.5850    -0.9490     4.0720 hc         1 1EV       0.063450
     32 H4          -2.0500    -0.4120     3.1580 hc         1 1EV       0.063450
     33 H5           0.1690     1.4830     4.2120 hc         1 1EV       0.057700
     34 H6          -1.3740     1.9760     3.4020 hc         1 1EV       0.057700
     35 H7          -5.3930     0.5030     5.8470 hn         1 1EV       0.401050
     36 H8          -5.4020     0.9640     7.4510 hn         1 1EV       0.401050
     37 H9          -3.3820     1.2140     8.8150 ha         1 1EV       0.142000
     38 H10          0.2230     1.6990     6.4720 ha         1 1EV       0.142000
     39 H11          0.0320     2.5940     8.8340 hc         1 1EV       0.049700
     40 H12         -0.1890     0.8760     9.3670 hc         1 1EV       0.049700
     41 H13         -1.4020     2.1360     9.8470 hc         1 1EV       0.049700
     42 H14          1.7160    -0.3280     3.1490 ha         1 1EV       0.141000
     43 H15          3.7740    -0.7530     2.0780 hc         1 1EV       0.063450
     44 H16          3.8040    -1.1660     0.3180 hc         1 1EV       0.063450
     45 H17          3.7590     1.3190    -0.2300 hc         1 1EV       0.057700
     46 H18          3.8350     1.6850     1.5420 hc         1 1EV       0.057700
     47 H19          7.8060    -0.1060     3.7860 hn         1 1EV       0.401050
     48 H20          9.2430     0.2460     3.0140 hn         1 1EV       0.401050
     49 H21          9.4640     0.5160     0.5900 ha         1 1EV       0.142000
     50 H22          8.3520     0.3220    -2.4740 hc         1 1EV       0.049700
     51 H23          7.9390     2.0840    -2.3670 hc         1 1EV       0.049700
     52 H24          9.4770     1.4640    -1.6280 hc         1 1EV       0.049700
     53 H25          5.7120     1.3460    -1.3970 ha         1 1EV       0.142000
@<TRIPOS>BOND
     1     1     2 3   
     2     2     3 1   
     3     3     4 ar  
     4     3     5 ar  
     5     4    18 ar  
     6     4    29 1   
     7     5     6 ar  
     8     5    30 1   
     9     6     7 1   
    10     6    17 ar  
    11     7     8 1   
    12     7    31 1   
    13     7    32 1   
    14     8     9 1   
    15     8    33 1   
    16     8    34 1   
    17     9    10 ar  
    18     9    15 ar  
    19    10    11 ar  
    20    11    12 1   
    21    11    13 ar  
    22    12    35 1   
    23    12    36 1   
    24    13    14 ar  
    25    13    37 1   
    26    14    15 ar  
    27    14    16 1   
    28    15    38 1   
    29    16    39 1   
    30    16    40 1   
    31    16    41 1   
    32    17    18 ar  
    33    17    42 1   
    34    18    19 1   
    35    19    20 1   
    36    19    43 1   
    37    19    44 1   
    38    20    21 1   
    39    20    45 1   
    40    20    46 1   
    41    21    22 ar  
    42    21    28 ar  
    43    22    23 ar  
    44    23    24 1   
    45    23    25 ar  
    46    24    47 1   
    47    24    48 1   
    48    25    26 ar  
    49    25    49 1   
    50    26    27 1   
    51    26    28 ar  
    52    27    50 1   
    53    27    51 1   
    54    27    52 1   
    55    28    53 1   
@<TRIPOS>SUBSTRUCTURE
     1 1EV         1 TEMP              0 ****  ****    0 ROOT
