@<TRIPOS>MOLECULE
molecule
   64    66     1     0     0
SMALL
bcc


@<TRIPOS>ATOM
      1 N22          0.0000     0.0000     0.0000 nv         1 1EW      -1.050500
      2 C22          1.3900     0.0000     0.0000 ca         1 1EW       0.702200
      3 C23          2.0800     0.0000     1.2080 ca         1 1EW      -0.292300
      4 C24          3.4640    -0.0000     1.1930 ca         1 1EW      -0.023300
      5 C27          4.2480    -0.0020     2.4790 c3         1 1EW      -0.051800
      6 C25          4.1120    -0.0000    -0.0350 ca         1 1EW      -0.296300
      7 N21          2.0470    -0.0040    -1.1510 nb         1 1EW      -0.745000
      8 C26          3.3650     0.0010    -1.1960 ca         1 1EW       0.447600
      9 C28          4.0630    -0.0050    -2.5310 c3         1 1EW      -0.121700
     10 C29          3.5710    -1.1930    -3.3600 c3         1 1EW      -0.031100
     11 C15          4.2710    -1.1980    -4.6950 ca         1 1EW      -0.075300
     12 C14          5.5130    -1.7930    -4.8230 ca         1 1EW      -0.122300
     13 C17          6.1670    -2.4360    -3.6270 c3         1 1EW      -0.019100
     14 C18          5.6570    -3.8700    -3.4770 c3         1 1EW      -0.109400
     15 C19          6.3220    -4.5240    -2.2630 c3         1 1EW       0.087800
     16 N20          5.8330    -5.9020    -2.1200 nz         1 1EW      -0.810600
     17 C13          6.1530    -1.7970    -6.0470 ca         1 1EW      -0.116000
     18 C12          5.5520    -1.2080    -7.1440 ca         1 1EW      -0.123000
     19 C16          3.6680    -0.6140    -5.7930 ca         1 1EW      -0.112000
     20 C11          4.3110    -0.6130    -7.0160 ca         1 1EW      -0.057300
     21 C09          3.6580     0.0310    -8.2110 c3         1 1EW      -0.037100
     22 C08          2.8020    -1.0040    -8.9430 c3         1 1EW      -0.117700
     23 C06          2.1480    -0.3590   -10.1380 ca         1 1EW       0.470600
     24 C05          2.3170    -0.9170   -11.3900 ca         1 1EW      -0.312300
     25 N01          1.4160     0.7260    -9.9750 nb         1 1EW      -0.777000
     26 C02          0.8230     1.3240   -10.9960 ca         1 1EW       0.715200
     27 N02          0.0610     2.4660   -10.7760 nv         1 1EW      -1.011500
     28 C03          0.9560     0.8210   -12.2860 ca         1 1EW      -0.321300
     29 C04          1.7070    -0.3220   -12.4870 ca         1 1EW      -0.000300
     30 C07          1.8760    -0.9000   -13.8690 c3         1 1EW      -0.051800
     31 H1          -0.5000     0.6810    -0.5370 hn         1 1EW       0.442300
     32 H2          -0.5000    -0.6910     0.5230 hn         1 1EW       0.442300
     33 H3           1.5480     0.1790     2.1350 ha         1 1EW       0.150000
     34 H4           4.0910    -0.9400     2.9970 hc         1 1EW       0.050033
     35 H5           5.3020     0.1170     2.2590 hc         1 1EW       0.050033
     36 H6           3.9150     0.8170     3.1060 hc         1 1EW       0.050033
     37 H7           5.1940     0.0020    -0.0810 ha         1 1EW       0.131000
     38 H8           3.8450     0.9170    -3.0560 hc         1 1EW       0.062200
     39 H9           5.1330    -0.0890    -2.3780 hc         1 1EW       0.062200
     40 H10          2.5020    -1.1090    -3.5120 hc         1 1EW       0.050200
     41 H11          3.7900    -2.1150    -2.8340 hc         1 1EW       0.050200
     42 H12          5.9240    -1.8710    -2.7350 hc         1 1EW       0.061200
     43 H13          7.2410    -2.4470    -3.7660 hc         1 1EW       0.061200
     44 H14          4.5830    -3.8590    -3.3380 hc         1 1EW       0.070700
     45 H15          5.9000    -4.4350    -4.3690 hc         1 1EW       0.070700
     46 H16          7.3960    -4.5350    -2.4020 hx         1 1EW       0.111200
     47 H17          6.0790    -3.9600    -1.3710 hx         1 1EW       0.111200
     48 H18          6.2550    -6.3240    -1.3170 hn         1 1EW       0.456133
     49 H19          4.8380    -5.8930    -2.0080 hn         1 1EW       0.456133
     50 H21          7.1400    -2.2340    -6.1400 ha         1 1EW       0.127000
     51 H22          6.0670    -1.1870    -8.0970 ha         1 1EW       0.143000
     52 H23          2.6950    -0.1480    -5.6920 ha         1 1EW       0.151000
     53 H24          3.0310     0.8510    -7.8820 hc         1 1EW       0.068700
     54 H25          4.4210     0.4070    -8.8820 hc         1 1EW       0.068700
     55 H26          2.0380    -1.3800    -8.2720 hc         1 1EW       0.053700
     56 H27          3.4290    -1.8230    -9.2720 hc         1 1EW       0.053700
     57 H28          2.9130    -1.8130   -11.5140 ha         1 1EW       0.134000
     58 H29         -0.0630     2.8140    -9.8460 hn         1 1EW       0.441300
     59 H30         -0.3750     2.9330   -11.5470 hn         1 1EW       0.441300
     60 H31          0.4680     1.3110   -13.1200 ha         1 1EW       0.139000
     61 H32          2.8520    -0.6320   -14.2560 hc         1 1EW       0.049700
     62 H33          1.1080    -0.5050   -14.5230 hc         1 1EW       0.049700
     63 H34          1.7900    -1.9790   -13.8220 hc         1 1EW       0.049700
     64 H203         6.0730    -6.4280    -2.9370 hn         1 1EW       0.456133
@<TRIPOS>BOND
     1    30    29 1
     2    29    28 ar
     3    29    24 ar
     4    28    26 ar
     5    24    23 ar
     6    26    27 1
     7    26    25 ar
     8    21    20 1
     9    21    22 1
    10    23    25 ar
    11    23    22 1
    12    20    18 ar
    13    20    19 ar
    14    18    17 ar
    15    19    11 ar
    16    17    12 ar
    17    11    12 ar
    18    11    10 1
    19    12    13 1
    20    10     9 1
    21     9     8 1
    22    16    15 1
    23    14    13 1
    24    14    15 1
    25     7     8 ar
    26     7     2 ar
    27     8     6 ar
    28     1     2 1
    29     2     3 ar
    30     6     4 ar
    31     3     4 ar
    32     4     5 1
    33     1    31 1
    34     1    32 1
    35     3    33 1
    36     5    34 1
    37     5    35 1
    38     5    36 1
    39     6    37 1
    40     9    38 1
    41     9    39 1
    42    10    40 1
    43    10    41 1
    44    13    42 1
    45    13    43 1
    46    14    44 1
    47    14    45 1
    48    15    46 1
    49    15    47 1
    50    16    48 1
    51    16    49 1
    52    17    50 1
    53    18    51 1
    54    19    52 1
    55    21    53 1
    56    21    54 1
    57    22    55 1
    58    22    56 1
    59    24    57 1
    60    27    58 1
    61    27    59 1
    62    28    60 1
    63    30    61 1
    64    30    62 1
    65    30    63 1
    66    64    16 1
@<TRIPOS>SUBSTRUCTURE
     1 1EW         1 TEMP              0 ****  ****    0 ROOT
