@<TRIPOS>MOLECULE
1EW
   64    66     1     0     0
SMALL
bcc


@<TRIPOS>ATOM
      1 N22          5.3990     1.3920     1.2510 nv         1 1EW      -0.942500
      2 C22          4.8540     0.2600     0.5600 ca         1 1EW       0.560200
      3 C23          4.3910    -0.8770     1.2690 ca         1 1EW      -0.269300
      4 C24          3.9090    -1.9770     0.5490 ca         1 1EW       0.007700
      5 C27          3.3960    -3.1720     1.2540 c3         1 1EW      -0.075800
      6 C25          3.9090    -1.9160    -0.8490 ca         1 1EW      -0.245300
      7 N21          4.8590     0.3130    -0.8050 nb         1 1EW      -0.782000
      8 C26          4.3990    -0.7590    -1.4890 ca         1 1EW       0.447600
      9 C28          4.4560    -0.7260    -2.9920 c3         1 1EW      -0.133700
     10 C29          3.4870     0.2760    -3.6000 c3         1 1EW      -0.033100
     11 C15          3.9760     0.7650    -4.9230 ca         1 1EW      -0.071300
     12 C14          4.8960     1.8170    -5.0540 ca         1 1EW      -0.105300
     13 C17          5.4590     2.5530    -3.8870 c3         1 1EW      -0.039100
     14 C18          6.9100     2.1740    -3.6470 c3         1 1EW      -0.107400
     15 C19          7.4980     2.8640    -2.4230 c3         1 1EW       0.101800
     16 N20          6.9340     2.3520    -1.1440 nz         1 1EW      -0.826600
     17 C13          5.2930     2.2250    -6.3370 ca         1 1EW      -0.122000
     18 C12          4.7980     1.5980    -7.4730 ca         1 1EW      -0.118000
     19 C16          3.4780     0.1430    -6.0770 ca         1 1EW      -0.123000
     20 C11          3.8810     0.5460    -7.3520 ca         1 1EW      -0.052300
     21 C09          3.3600    -0.1390    -8.5670 c3         1 1EW      -0.043100
     22 C08          2.4350     0.7660    -9.3620 c3         1 1EW      -0.121700
     23 C06          1.8860     0.0670   -10.5770 ca         1 1EW       0.442600
     24 C05          0.4920    -0.0840   -10.6910 ca         1 1EW      -0.294300
     25 N01          2.7610    -0.3660   -11.5130 nb         1 1EW      -0.738000
     26 C02          2.2530    -1.0040   -12.6140 ca         1 1EW       0.641200
     27 N02          3.1410    -1.5620   -13.5440 nv         1 1EW      -0.927500
     28 C03          0.8470    -1.1810   -12.8030 ca         1 1EW      -0.298300
     29 C04         -0.0300    -0.7150   -11.8290 ca         1 1EW      -0.000300
     30 C07         -1.4940    -0.8690   -11.9910 c3         1 1EW      -0.063800
     31 H1           5.5810     1.1530     2.2080 hn         1 1EW       0.384800
     32 H2           4.7580     2.1650     1.2170 hn         1 1EW       0.384800
     33 H3           4.4080    -0.9040     2.3680 ha         1 1EW       0.157000
     34 H4           3.5620    -4.0970     0.6480 hc         1 1EW       0.066033
     35 H5           2.2940    -3.0610     1.4290 hc         1 1EW       0.066033
     36 H6           3.8960    -3.3010     2.2460 hc         1 1EW       0.066033
     37 H7           3.5350    -2.7620    -1.4450 ha         1 1EW       0.164000
     38 H8           4.2260    -1.7520    -3.3880 hc         1 1EW       0.063200
     39 H9           5.5060    -0.4820    -3.3130 hc         1 1EW       0.063200
     40 H10          3.3160     1.1410    -2.9070 hc         1 1EW       0.058700
     41 H11          2.4860    -0.2190    -3.7290 hc         1 1EW       0.058700
     42 H12          4.8490     2.3470    -2.9690 hc         1 1EW       0.051200
     43 H13          5.3940     3.6580    -4.0850 hc         1 1EW       0.051200
     44 H14          7.0090     1.0590    -3.5580 hc         1 1EW       0.086200
     45 H15          7.5270     2.4890    -4.5340 hc         1 1EW       0.086200
     46 H16          7.2920     3.9720    -2.4700 hx         1 1EW       0.100700
     47 H17          8.6140     2.7030    -2.3940 hx         1 1EW       0.100700
     48 H18          7.1370     1.3510    -1.0360 hn         1 1EW       0.465800
     49 H19          7.3220     2.8530    -0.3430 hn         1 1EW       0.465800
     50 H21          6.0050     3.0580    -6.4420 ha         1 1EW       0.129000
     51 H22          5.1220     1.9260    -8.4730 ha         1 1EW       0.150000
     52 H23          2.7520    -0.6800    -5.9750 ha         1 1EW       0.141000
     53 H24          4.2280    -0.4490    -9.2110 hc         1 1EW       0.068200
     54 H25          2.8090    -1.0740    -8.2790 hc         1 1EW       0.068200
     55 H26          2.9920     1.6870    -9.6820 hc         1 1EW       0.056200
     56 H27          1.5810     1.0960    -8.7130 hc         1 1EW       0.056200
     57 H28         -0.1770     0.2890    -9.9060 ha         1 1EW       0.141000
     58 H29          4.0850    -1.2520   -13.4940 hn         1 1EW       0.406800
     59 H30          2.7760    -1.6200   -14.4680 hn         1 1EW       0.406800
     60 H31          0.4650    -1.6880   -13.7000 ha         1 1EW       0.146000
     61 H32         -1.9320     0.0800   -12.3930 hc         1 1EW       0.052367
     62 H33         -1.9800    -1.0910   -11.0090 hc         1 1EW       0.052367
     63 H34         -1.7370    -1.6960   -12.7030 hc         1 1EW       0.052367
     64 H203         5.9100     2.4630    -1.1450 hn         1 1EW       0.465800
@<TRIPOS>BOND
     1     1     2 1   
     2     1    31 1   
     3     1    32 1   
     4     2     3 ar  
     5     2     7 ar  
     6     3     4 ar  
     7     3    33 1   
     8     4     5 1   
     9     4     6 ar  
    10     5    34 1   
    11     5    35 1   
    12     5    36 1   
    13     6     8 ar  
    14     6    37 1   
    15     7     8 ar  
    16     8     9 1   
    17     9    10 1   
    18     9    38 1   
    19     9    39 1   
    20    10    11 1   
    21    10    40 1   
    22    10    41 1   
    23    11    12 ar  
    24    11    19 ar  
    25    12    13 1   
    26    12    17 ar  
    27    13    14 1   
    28    13    42 1   
    29    13    43 1   
    30    14    15 1   
    31    14    44 1   
    32    14    45 1   
    33    15    16 1   
    34    15    46 1   
    35    15    47 1   
    36    16    48 1   
    37    16    49 1   
    38    16    64 1   
    39    17    18 ar  
    40    17    50 1   
    41    18    20 ar  
    42    18    51 1   
    43    19    20 ar  
    44    19    52 1   
    45    20    21 1   
    46    21    22 1   
    47    21    53 1   
    48    21    54 1   
    49    22    23 1   
    50    22    55 1   
    51    22    56 1   
    52    23    24 ar  
    53    23    25 ar  
    54    24    29 ar  
    55    24    57 1   
    56    25    26 ar  
    57    26    27 1   
    58    26    28 ar  
    59    27    58 1   
    60    27    59 1   
    61    28    29 ar  
    62    28    60 1   
    63    29    30 1   
    64    30    61 1   
    65    30    62 1   
    66    30    63 1   
@<TRIPOS>SUBSTRUCTURE
     1 1EW         1 TEMP              0 ****  ****    0 ROOT
