@<TRIPOS>MOLECULE
molecule
   47    46     1     0     0
SMALL
bcc


@<TRIPOS>ATOM
      1 CAA          0.0000     0.0000     0.0000 c3         1 1EX      -0.086100
      2 CAH          1.5310     0.0000     0.0000 c3         1 1EX       0.004800
      3 CAF          2.0320     0.0000     1.4210 c2         1 1EX      -0.457200
      4 CAD          2.8140    -0.9860     1.8490 ce         1 1EX      -0.103000
      5 CAE          3.2970    -2.0050     0.9040 ce         1 1EX      -0.102000
      6 CAG          3.9910    -3.0460     1.3490 c2         1 1EX      -0.477200
      7 CAJ          4.3800    -3.1280     2.8030 c3         1 1EX      -0.005200
      8 CAL          3.8920    -4.4550     3.3870 c3         1 1EX      -0.111400
      9 CAN          4.2870    -4.5370     4.8630 c3         1 1EX      -0.082400
     10 CAP          3.7980    -5.8650     5.4480 c3         1 1EX      -0.081400
     11 CAQ          4.1920    -5.9480     6.9240 c3         1 1EX      -0.081400
     12 CAO          3.7040    -7.2750     7.5080 c3         1 1EX      -0.081400
     13 CAM          4.0980    -7.3570     8.9840 c3         1 1EX      -0.079400
     14 CAK          3.6110    -8.6840     9.5690 c3         1 1EX      -0.082400
     15 CAI          4.0050    -8.7670    11.0460 c3         1 1EX      -0.081400
     16 CAC          3.5160   -10.0940    11.6300 c3         1 1EX       0.140400
     17 OAB          3.8850   -10.1710    13.0090 oh         1 1EX      -0.612800
     18 H1          -0.3610     0.1710    -1.0070 hc         1 1EX       0.039367
     19 H2          -0.3610     0.7870     0.6520 hc         1 1EX       0.039367
     20 H3          -0.3610    -0.9580     0.3550 hc         1 1EX       0.039367
     21 H4           1.8920    -0.8840    -0.5110 hc         1 1EX       0.046200
     22 H5           1.8920     0.8850    -0.5110 hc         1 1EX       0.046200
     23 H6           2.6360     0.3770     0.6040 ha         1 1EX       0.175000
     24 H7           2.2060    -1.8390     1.5720 ha         1 1EX       0.248000
     25 H8           3.9300    -1.2010     1.2590 ha         1 1EX       0.263000
     26 H9           3.3080    -3.4060     2.1090 ha         1 1EX       0.192000
     27 H10          3.9260    -2.3070     3.3440 hc         1 1EX       0.062700
     28 H11          5.4580    -3.0690     2.8920 hc         1 1EX       0.062700
     29 H12          4.3460    -5.2760     2.8460 hc         1 1EX       0.053700
     30 H13          2.8140    -4.5150     3.2970 hc         1 1EX       0.053700
     31 H14          3.8330    -3.7160     5.4040 hc         1 1EX       0.045700
     32 H15          5.3650    -4.4780     4.9530 hc         1 1EX       0.045700
     33 H16          2.7200    -5.9240     5.3580 hc         1 1EX       0.042700
     34 H17          4.2510    -6.6870     4.9070 hc         1 1EX       0.042700
     35 H18          5.2700    -5.8890     7.0140 hc         1 1EX       0.042700
     36 H19          3.7390    -5.1260     7.4650 hc         1 1EX       0.042700
     37 H20          4.1570    -8.0960     6.9670 hc         1 1EX       0.041700
     38 H21          2.6260    -7.3340     7.4180 hc         1 1EX       0.041700
     39 H22          3.6440    -6.5360     9.5260 hc         1 1EX       0.043700
     40 H23          5.1760    -7.2970     9.0740 hc         1 1EX       0.043700
     41 H24          2.5330    -8.7440     9.4800 hc         1 1EX       0.040700
     42 H25          4.0640    -9.5060     9.0280 hc         1 1EX       0.040700
     43 H26          3.5520    -7.9450    11.5870 hc         1 1EX       0.053700
     44 H27          5.0830    -8.7080    11.1350 hc         1 1EX       0.053700
     45 H28          2.4380   -10.1530    11.5400 h1         1 1EX       0.018700
     46 H29          3.9690   -10.9150    11.0880 h1         1 1EX       0.018700
     47 H30          3.5830   -10.9890    13.3700 ho         1 1EX       0.401000
@<TRIPOS>BOND
     1     6     5 2
     2     6     7 1
     3     5     4 1
     4     8     9 1
     5     8     7 1
     6     9    10 1
     7     4     3 2
     8    10    11 1
     9    14    13 1
    10    14    15 1
    11    11    12 1
    12    13    12 1
    13     3     2 1
    14     2     1 1
    15    15    16 1
    16    16    17 1
    17     1    18 1
    18     1    19 1
    19     1    20 1
    20     2    21 1
    21     2    22 1
    22     3    23 1
    23     4    24 1
    24     5    25 1
    25     6    26 1
    26     7    27 1
    27     7    28 1
    28     8    29 1
    29     8    30 1
    30     9    31 1
    31     9    32 1
    32    10    33 1
    33    10    34 1
    34    11    35 1
    35    11    36 1
    36    12    37 1
    37    12    38 1
    38    13    39 1
    39    13    40 1
    40    14    41 1
    41    14    42 1
    42    15    43 1
    43    15    44 1
    44    16    45 1
    45    16    46 1
    46    17    47 1
@<TRIPOS>SUBSTRUCTURE
     1 1EX         1 TEMP              0 ****  ****    0 ROOT
