@<TRIPOS>MOLECULE
molecule
   47    46     1     0     0
SMALL
bcc


@<TRIPOS>ATOM
      1 CAA          0.0000     0.0000     0.0000 c3         1 1EX      -0.098100
      2 CAH          1.5300     0.0000     0.0000 c3         1 1EX       0.000800
      3 CAF          2.0770     0.0000     1.4260 c2         1 1EX      -0.487200
      4 CAD          3.2890    -0.4380     1.7760 ce         1 1EX       0.164000
      5 CAE          4.3870    -1.0250     0.8730 ce         1 1EX       0.183000
      6 CAG          4.3540    -1.2170    -0.4480 c2         1 1EX      -0.495200
      7 CAJ          3.1680    -0.8750    -1.3490 c3         1 1EX       0.002800
      8 CAL          3.6140    -0.7140    -2.8030 c3         1 1EX      -0.090400
      9 CAN          2.7240    -1.5300    -3.7440 c3         1 1EX      -0.078400
     10 CAP          1.3440    -0.8850    -3.8890 c3         1 1EX      -0.081400
     11 CAQ          0.3660    -1.8360    -4.5820 c3         1 1EX      -0.079400
     12 CAO         -0.1220    -1.2490    -5.9090 c3         1 1EX      -0.078400
     13 CAM         -0.8290    -2.3120    -6.7520 c3         1 1EX      -0.077400
     14 CAK         -1.1240    -3.5630    -5.9210 c3         1 1EX      -0.079400
     15 CAI         -1.9580    -3.2170    -4.6870 c3         1 1EX      -0.079400
     16 CAC         -3.4470    -3.4570    -4.9450 c3         1 1EX       0.130400
     17 OAB         -3.9690    -3.4780    -6.2760 oh         1 1EX      -0.601800
     18 H1          -0.3610    -1.0180     0.0770 hc         1 1EX       0.038700
     19 H2          -0.3610     0.4430    -0.9200 hc         1 1EX       0.038700
     20 H3          -0.3610     0.5760     0.8440 hc         1 1EX       0.038700
     21 H4           1.8850    -0.8830    -0.5170 hc         1 1EX       0.048200
     22 H5           1.8860     0.8830    -0.5170 hc         1 1EX       0.048200
     23 H6           1.4290     0.3850     2.2040 ha         1 1EX       0.189000
     24 H7           3.2410    -0.5860     0.7040 ha         1 1EX      -0.005000
     25 H8           3.4080    -0.6750     0.5680 ha         1 1EX       0.026000
     26 H9           3.3960    -0.7860    -0.1840 ha         1 1EX       0.188000
     27 H10          2.7190     0.0510    -1.0100 hc         1 1EX       0.051700
     28 H11          2.4340    -1.6700    -1.2870 hc         1 1EX       0.051700
     29 H12          4.6380    -1.0520    -2.9010 hc         1 1EX       0.048200
     30 H13          3.5570     0.3320    -3.0780 hc         1 1EX       0.048200
     31 H14          3.1950    -1.5860    -4.7180 hc         1 1EX       0.042700
     32 H15          2.6090    -2.5310    -3.3460 hc         1 1EX       0.042700
     33 H16          1.4350     0.0210    -4.4750 hc         1 1EX       0.039700
     34 H17          0.9630    -0.6370    -2.9060 hc         1 1EX       0.039700
     35 H18          0.8610    -2.7800    -4.7710 hc         1 1EX       0.041200
     36 H19         -0.4860    -2.0040    -3.9330 hc         1 1EX       0.041200
     37 H20         -0.8110    -0.4380    -5.7070 hc         1 1EX       0.037700
     38 H21          0.7280    -0.8640    -6.4610 hc         1 1EX       0.037700
     39 H22         -1.7610    -1.9060    -7.1280 hc         1 1EX       0.040700
     40 H23         -0.1960    -2.5820    -7.5890 hc         1 1EX       0.040700
     41 H24         -1.6680    -4.2740    -6.5310 hc         1 1EX       0.046700
     42 H25         -0.1880    -4.0080    -5.6050 hc         1 1EX       0.046700
     43 H26         -1.8050    -2.1740    -4.4350 hc         1 1EX       0.050200
     44 H27         -1.6370    -3.8340    -3.8560 hc         1 1EX       0.050200
     45 H28         -3.9890    -2.6900    -4.4050 h1         1 1EX       0.019700
     46 H29         -3.6960    -4.4090    -4.4920 h1         1 1EX       0.019700
     47 H30         -4.8870    -3.6950    -6.2500 ho         1 1EX       0.398000
@<TRIPOS>BOND
     1     6     5 2   
     2     6     7 1   
     3     5     4 1   
     4     8     9 1   
     5     8     7 1   
     6     9    10 1   
     7     4     3 2   
     8    10    11 1   
     9    14    13 1   
    10    14    15 1   
    11    11    12 1   
    12    13    12 1   
    13     3     2 1   
    14     2     1 1   
    15    15    16 1   
    16    16    17 1   
    17     1    18 1   
    18     1    19 1   
    19     1    20 1   
    20     2    21 1   
    21     2    22 1   
    22     3    23 1   
    23     4    24 1   
    24     5    25 1   
    25     6    26 1   
    26     7    27 1   
    27     7    28 1   
    28     8    29 1   
    29     8    30 1   
    30     9    31 1   
    31     9    32 1   
    32    10    33 1   
    33    10    34 1   
    34    11    35 1   
    35    11    36 1   
    36    12    37 1   
    37    12    38 1   
    38    13    39 1   
    39    13    40 1   
    40    14    41 1   
    41    14    42 1   
    42    15    43 1   
    43    15    44 1   
    44    16    45 1   
    45    16    46 1   
    46    17    47 1   
@<TRIPOS>SUBSTRUCTURE
     1 1EX         1 TEMP              0 ****  ****    0 ROOT
