@<TRIPOS>MOLECULE
1EX
   47    46     1     0     0
SMALL
bcc


@<TRIPOS>ATOM
      1 CAA         1.6620    1.6940   -1.1690 c3        1 1EX     -0.092100
      2 CAH         1.9170    0.2990   -0.6550 c3        1 1EX     -0.053200
      3 CAF         2.0980    0.2640    0.8150 c2        1 1EX     -0.153200
      4 CAD         2.3340   -0.8440    1.5320 ce        1 1EX     -0.146000
      5 CAE         2.4480   -2.1760    0.9790 ce        1 1EX     -0.145000
      6 CAG         2.6780   -3.2850    1.6970 c2        1 1EX     -0.153200
      7 CAJ         2.8520   -3.3200    3.1680 c3        1 1EX     -0.052200
      8 CAL         3.0860   -4.7260    3.6820 c3        1 1EX     -0.078400
      9 CAN         3.2590   -4.7360    5.1860 c3        1 1EX     -0.079400
     10 CAP         3.4910   -6.1400    5.7020 c3        1 1EX     -0.078400
     11 CAQ         3.6630   -6.1500    7.2060 c3        1 1EX     -0.079400
     12 CAO         3.8930   -7.5540    7.7230 c3        1 1EX     -0.079400
     13 CAM         4.0650   -7.5640    9.2270 c3        1 1EX     -0.078400
     14 CAK         4.2930   -8.9680    9.7440 c3        1 1EX     -0.078400
     15 CAI         4.4650   -8.9730   11.2470 c3        1 1EX     -0.084400
     16 CAC         4.6920  -10.3870   11.7530 c3        1 1EX      0.131400
     17 OAB         4.8440  -10.3060   13.1620 oh        1 1EX     -0.601800
     18 H1          2.5190    2.3680   -0.9250 hc        1 1EX      0.034367
     19 H2          1.5310    1.6780   -2.2780 hc        1 1EX      0.034367
     20 H3          0.7380    2.1220   -0.7110 hc        1 1EX      0.034367
     21 H4          2.8320   -0.1210   -1.1550 hc        1 1EX      0.049700
     22 H5          1.0560   -0.3670   -0.9420 hc        1 1EX      0.049700
     23 H6          2.0270    1.2390    1.3260 ha        1 1EX      0.121000
     24 H7          2.4540   -0.7660    2.6280 ha        1 1EX      0.121000
     25 H8          2.3320   -2.2540   -0.1170 ha        1 1EX      0.121000
     26 H9          2.7500   -4.2600    1.1850 ha        1 1EX      0.121000
     27 H10         1.9400   -2.8890    3.6660 hc        1 1EX      0.050700
     28 H11         3.7200   -2.6680    3.4600 hc        1 1EX      0.050700
     29 H12         4.0000   -5.1580    3.1950 hc        1 1EX      0.041700
     30 H13         2.2190   -5.3800    3.3990 hc        1 1EX      0.041700
     31 H14         4.1270   -4.0830    5.4690 hc        1 1EX      0.040700
     32 H15         2.3460   -4.3020    5.6730 hc        1 1EX      0.040700
     33 H16         2.6230   -6.7930    5.4190 hc        1 1EX      0.039700
     34 H17         4.4040   -6.5740    5.2160 hc        1 1EX      0.039700
     35 H18         2.7510   -5.7150    7.6920 hc        1 1EX      0.040700
     36 H19         4.5310   -5.4980    7.4900 hc        1 1EX      0.040700
     37 H20         4.8050   -7.9890    7.2370 hc        1 1EX      0.039700
     38 H21         3.0250   -8.2060    7.4400 hc        1 1EX      0.039700
     39 H22         4.9340   -6.9130    9.5110 hc        1 1EX      0.041700
     40 H23         3.1530   -7.1280    9.7130 hc        1 1EX      0.041700
     41 H24         5.2050   -9.4040    9.2580 hc        1 1EX      0.039700
     42 H25         3.4240   -9.6180    9.4610 hc        1 1EX      0.039700
     43 H26         5.3360   -8.3320   11.5410 hc        1 1EX      0.055700
     44 H27         3.5560   -8.5450   11.7440 hc        1 1EX      0.055700
     45 H28         3.8160  -11.0440   11.5000 h1        1 1EX      0.019700
     46 H29         5.6180  -10.8280   11.2940 h1        1 1EX      0.019700
     47 H30         4.9870  -11.2060   13.4750 ho        1 1EX      0.398000
@<TRIPOS>BOND
     1    1    2 1   
     2    1   18 1   
     3    1   19 1   
     4    1   20 1   
     5    2    3 1   
     6    2   21 1   
     7    2   22 1   
     8    3    4 2   
     9    3   23 1   
    10    4    5 1   
    11    4   24 1   
    12    5    6 2   
    13    5   25 1   
    14    6    7 1   
    15    6   26 1   
    16    7    8 1   
    17    7   27 1   
    18    7   28 1   
    19    8    9 1   
    20    8   29 1   
    21    8   30 1   
    22    9   10 1   
    23    9   31 1   
    24    9   32 1   
    25   10   11 1   
    26   10   33 1   
    27   10   34 1   
    28   11   12 1   
    29   11   35 1   
    30   11   36 1   
    31   12   13 1   
    32   12   37 1   
    33   12   38 1   
    34   13   14 1   
    35   13   39 1   
    36   13   40 1   
    37   14   15 1   
    38   14   41 1   
    39   14   42 1   
    40   15   16 1   
    41   15   43 1   
    42   15   44 1   
    43   16   17 1   
    44   16   45 1   
    45   16   46 1   
    46   17   47 1   
@<TRIPOS>SUBSTRUCTURE
     1 1EX         1 TEMP              0 ****  ****    0 ROOT
