@<TRIPOS>MOLECULE
molecule
   45    44     1     0     0
SMALL
bcc


@<TRIPOS>ATOM
      1 CAA          0.0000     0.0000     0.0000 c3         1 1EY      -0.095100
      2 CAG          1.5290     0.0000     0.0000 c3         1 1EY       0.001800
      3 CAE          2.0620     0.0000     1.4300 c2         1 1EY      -0.489200
      4 CAC          3.2780    -0.4470     1.7930 ce         1 1EY       0.179000
      5 CAD          4.3900    -1.0270     0.9030 ce         1 1EY      -0.224000
      6 CAF          4.3750    -1.2200    -0.4280 c2         1 1EY      -0.169200
      7 CAI          3.1920    -0.8680    -1.3290 c3         1 1EY      -0.054200
      8 CAK          3.6110    -0.8980    -2.8010 c3         1 1EY      -0.078400
      9 CAM          3.7180     0.5150    -3.3820 c3         1 1EY      -0.078400
     10 CAO          3.3170     0.5410    -4.8620 c3         1 1EY      -0.079400
     11 CAQ          1.9400     1.1830    -5.0630 c3         1 1EY      -0.079400
     12 CAP          1.2220     0.5850    -6.2790 c3         1 1EY      -0.079400
     13 CAN          0.1150     1.5130    -6.7900 c3         1 1EY      -0.079400
     14 CAL         -0.0560     1.3940    -8.3080 c3         1 1EY      -0.074400
     15 CAJ         -0.9310     0.1920    -8.6750 c3         1 1EY      -0.199400
     16 CAH         -1.2680     0.1850   -10.1680 c          1 1EY       0.562900
     17 OAB         -2.3730     0.8970   -10.3950 o          1 1EY      -0.525100
     18 H1          -0.3610     0.0940    -1.0170 hc         1 1EY       0.038367
     19 H2          -0.3610     0.8340     0.5900 hc         1 1EY       0.038367
     20 H3          -0.3610    -0.9280     0.4270 hc         1 1EY       0.038367
     21 H4           1.8870     0.8830    -0.5150 hc         1 1EY       0.051700
     22 H5           1.8860    -0.8840    -0.5150 hc         1 1EY       0.051700
     23 H6           2.5470    -0.3260     0.5180 ha         1 1EY       0.188000
     24 H7           3.2460    -0.5860     0.7190 ha         1 1EY       0.112000
     25 H8           5.2920    -1.3200     1.4270 ha         1 1EY       0.112000
     26 H9           3.4160    -0.7880    -0.1700 ha         1 1EY       0.117000
     27 H10          2.8360     0.1250    -1.0790 hc         1 1EY       0.049200
     28 H11          2.3950    -1.5840    -1.1690 hc         1 1EY       0.049200
     29 H12          4.5730    -1.3890    -2.8860 hc         1 1EY       0.042700
     30 H13          2.8760    -1.4590    -3.3670 hc         1 1EY       0.042700
     31 H14          4.7390     0.8620    -3.2850 hc         1 1EY       0.039200
     32 H15          3.0640     1.1770    -2.8260 hc         1 1EY       0.039200
     33 H16          3.2910    -0.4750    -5.2380 hc         1 1EY       0.040700
     34 H17          4.0550     1.1050    -5.4180 hc         1 1EY       0.040700
     35 H18          1.3380     1.0170    -4.1780 hc         1 1EY       0.039700
     36 H19          2.0640     2.2490    -5.2130 hc         1 1EY       0.039700
     37 H20          1.9430     0.4240    -7.0710 hc         1 1EY       0.039200
     38 H21          0.7850    -0.3660    -5.9990 hc         1 1EY       0.039200
     39 H22         -0.8180     1.2510    -6.3070 hc         1 1EY       0.041200
     40 H23          0.3680     2.5360    -6.5410 hc         1 1EY       0.041200
     41 H24          0.9180     1.2770    -8.7670 hc         1 1EY       0.054200
     42 H25         -0.5200     2.2980    -8.6840 hc         1 1EY       0.054200
     43 H26         -1.8500     0.2350    -8.1040 hc         1 1EY       0.067200
     44 H27         -0.4020    -0.7200    -8.4260 hc         1 1EY       0.067200
     45 H28         -1.0550    -0.6920   -10.7680 h4         1 1EY      -0.010800
@<TRIPOS>BOND
     1     1     2 1   
     2     3     2 1   
     3     3     4 2   
     4    17    16 2   
     5    13    14 1   
     6    13    12 1   
     7     4     5 1   
     8    14    15 1   
     9    15    16 1   
    10    11    12 1   
    11    11    10 1   
    12     7     6 1   
    13     7     8 1   
    14     5     6 2   
    15     9    10 1   
    16     9     8 1   
    17     1    18 1   
    18     1    19 1   
    19     1    20 1   
    20     2    21 1   
    21     2    22 1   
    22     3    23 1   
    23     4    24 1   
    24     5    25 1   
    25     6    26 1   
    26     7    27 1   
    27     7    28 1   
    28     8    29 1   
    29     8    30 1   
    30     9    31 1   
    31     9    32 1   
    32    10    33 1   
    33    10    34 1   
    34    11    35 1   
    35    11    36 1   
    36    12    37 1   
    37    12    38 1   
    38    13    39 1   
    39    13    40 1   
    40    14    41 1   
    41    14    42 1   
    42    15    43 1   
    43    15    44 1   
    44    16    45 1   
@<TRIPOS>SUBSTRUCTURE
     1 1EY         1 TEMP              0 ****  ****    0 ROOT
