@<TRIPOS>MOLECULE
molecule
   45    44     1     0     0
SMALL
bcc


@<TRIPOS>ATOM
      1 CAA          0.0000     0.0000     0.0000 c3         1 1EY      -0.086100
      2 CAG          1.5300     0.0000     0.0000 c3         1 1EY       0.005800
      3 CAE          2.0320     0.0000     1.4210 c2         1 1EY      -0.457200
      4 CAC          2.8130    -0.9850     1.8500 ce         1 1EY      -0.104000
      5 CAD          3.2960    -2.0060     0.9060 ce         1 1EY      -0.102000
      6 CAF          3.9910    -3.0460     1.3510 c2         1 1EY      -0.477200
      7 CAI          4.3800    -3.1270     2.8050 c3         1 1EY      -0.005200
      8 CAK          3.8910    -4.4530     3.3900 c3         1 1EY      -0.111400
      9 CAM          4.2860    -4.5360     4.8670 c3         1 1EY      -0.082400
     10 CAO          3.7980    -5.8620     5.4520 c3         1 1EY      -0.081400
     11 CAQ          4.1910    -5.9440     6.9280 c3         1 1EY      -0.081400
     12 CAP          3.7040    -7.2700     7.5140 c3         1 1EY      -0.082400
     13 CAN          4.0980    -7.3520     8.9900 c3         1 1EY      -0.080400
     14 CAL          3.6090    -8.6790     9.5750 c3         1 1EY      -0.075400
     15 CAJ          4.0040    -8.7600    11.0520 c3         1 1EY      -0.204400
     16 CAH          3.5230   -10.0670    11.6290 c          1 1EY       0.567900
     17 OAB          4.3030   -10.8090    12.1730 o          1 1EY      -0.521100
     18 H1          -0.3610     0.7850     0.6530 hc         1 1EY       0.039367
     19 H2          -0.3610     0.1730    -1.0070 hc         1 1EY       0.039367
     20 H3          -0.3610    -0.9580     0.3530 hc         1 1EY       0.039367
     21 H4           1.8910    -0.8840    -0.5110 hc         1 1EY       0.046200
     22 H5           1.8910     0.8850    -0.5110 hc         1 1EY       0.046200
     23 H6           2.6370     0.3740     0.6040 ha         1 1EY       0.175000
     24 H7           2.2050    -1.8380     1.5740 ha         1 1EY       0.248000
     25 H8           3.9300    -1.2020     1.2610 ha         1 1EY       0.263000
     26 H9           3.3090    -3.4060     2.1120 ha         1 1EY       0.192000
     27 H10          3.9280    -2.3050     3.3460 hc         1 1EY       0.062700
     28 H11          5.4580    -3.0680     2.8940 hc         1 1EY       0.062700
     29 H12          4.3440    -5.2750     2.8490 hc         1 1EY       0.053700
     30 H13          2.8130    -4.5120     3.3010 hc         1 1EY       0.053700
     31 H14          5.3640    -4.4760     4.9570 hc         1 1EY       0.045200
     32 H15          3.8320    -3.7140     5.4080 hc         1 1EY       0.045200
     33 H16          2.7200    -5.9220     5.3610 hc         1 1EY       0.043200
     34 H17          4.2520    -6.6840     4.9110 hc         1 1EY       0.043200
     35 H18          5.2690    -5.8840     7.0180 hc         1 1EY       0.042700
     36 H19          3.7370    -5.1220     7.4680 hc         1 1EY       0.042700
     37 H20          4.1570    -8.0920     6.9730 hc         1 1EY       0.042700
     38 H21          2.6260    -7.3300     7.4240 hc         1 1EY       0.042700
     39 H22          3.6450    -6.5300     9.5310 hc         1 1EY       0.044200
     40 H23          5.1760    -7.2930     9.0790 hc         1 1EY       0.044200
     41 H24          4.0620    -9.5010     9.0340 hc         1 1EY       0.045200
     42 H25          2.5310    -8.7380     9.4850 hc         1 1EY       0.045200
     43 H26          3.5510    -7.9380    11.5930 hc         1 1EY       0.068200
     44 H27          5.0820    -8.7020    11.1410 hc         1 1EY       0.068200
     45 H28          2.4700   -10.3190    11.5930 h4         1 1EY      -0.006800
@<TRIPOS>BOND
     1     1     2 1   
     2     3     2 1   
     3     3     4 2   
     4    17    16 2   
     5    13    14 1   
     6    13    12 1   
     7     4     5 1   
     8    14    15 1   
     9    15    16 1   
    10    11    12 1   
    11    11    10 1   
    12     7     6 1   
    13     7     8 1   
    14     5     6 2   
    15     9    10 1   
    16     9     8 1   
    17     1    18 1   
    18     1    19 1   
    19     1    20 1   
    20     2    21 1   
    21     2    22 1   
    22     3    23 1   
    23     4    24 1   
    24     5    25 1   
    25     6    26 1   
    26     7    27 1   
    27     7    28 1   
    28     8    29 1   
    29     8    30 1   
    30     9    31 1   
    31     9    32 1   
    32    10    33 1   
    33    10    34 1   
    34    11    35 1   
    35    11    36 1   
    36    12    37 1   
    37    12    38 1   
    38    13    39 1   
    39    13    40 1   
    40    14    41 1   
    41    14    42 1   
    42    15    43 1   
    43    15    44 1   
    44    16    45 1   
@<TRIPOS>SUBSTRUCTURE
     1 1EY         1 TEMP              0 ****  ****    0 ROOT
