@<TRIPOS>MOLECULE
1EY
   45    44     1     0     0
SMALL
bcc


@<TRIPOS>ATOM
      1 CAA         1.6440    1.6740   -1.1530 c3        1 1EY     -0.092100
      2 CAG         1.8680    0.2750   -0.6350 c3        1 1EY     -0.054200
      3 CAE         2.1240    0.2480    0.8240 c2        1 1EY     -0.152200
      4 CAC         2.3520   -0.8610    1.5430 ce        1 1EY     -0.146000
      5 CAD         2.3840   -2.2020    1.0020 ce        1 1EY     -0.144000
      6 CAF         2.6070   -3.3120    1.7210 c2        1 1EY     -0.154200
      7 CAI         2.8570   -3.3380    3.1810 c3        1 1EY     -0.052200
      8 CAK         3.0670   -4.7460    3.6990 c3        1 1EY     -0.078400
      9 CAM         3.3190   -4.7460    5.1920 c3        1 1EY     -0.079400
     10 CAO         3.5270   -6.1520    5.7130 c3        1 1EY     -0.079400
     11 CAQ         3.7770   -6.1520    7.2060 c3        1 1EY     -0.079400
     12 CAP         3.9840   -7.5580    7.7270 c3        1 1EY     -0.079400
     13 CAN         4.2340   -7.5580    9.2200 c3        1 1EY     -0.078400
     14 CAL         4.4390   -8.9650    9.7410 c3        1 1EY     -0.076400
     15 CAJ         4.6890   -8.9610   11.2330 c3        1 1EY     -0.204400
     16 CAH         4.8680  -10.3470   11.7690 c         1 1EY      0.564900
     17 OAB         5.5320  -10.5960   12.7760 o         1 1EY     -0.528100
     18 H1          0.7630    2.1440   -0.6530 hc        1 1EY      0.034367
     19 H2          2.5390    2.3140   -0.9620 hc        1 1EY      0.034367
     20 H3          1.4550    1.6510   -2.2540 hc        1 1EY      0.034367
     21 H4          0.9670   -0.3580   -0.8680 hc        1 1EY      0.049700
     22 H5          2.7380   -0.1890   -1.1760 hc        1 1EY      0.049700
     23 H6          2.1190    1.2310    1.3260 ha        1 1EY      0.121000
     24 H7          2.5330   -0.7760    2.6300 ha        1 1EY      0.121000
     25 H8          2.2070   -2.2870   -0.0860 ha        1 1EY      0.121000
     26 H9          2.6120   -4.2940    1.2190 ha        1 1EY      0.121000
     27 H10         3.7630   -2.7150    3.4190 hc        1 1EY      0.050700
     28 H11         1.9890   -2.8680    3.7200 hc        1 1EY      0.050700
     29 H12         3.9380   -5.2160    3.1710 hc        1 1EY      0.041700
     30 H13         2.1640   -5.3700    3.4700 hc        1 1EY      0.041700
     31 H14         4.2220   -4.1220    5.4210 hc        1 1EY      0.040700
     32 H15         2.4480   -4.2750    5.7200 hc        1 1EY      0.040700
     33 H16         4.3980   -6.6230    5.1850 hc        1 1EY      0.040200
     34 H17         2.6240   -6.7760    5.4830 hc        1 1EY      0.040200
     35 H18         4.6820   -5.5290    7.4360 hc        1 1EY      0.040700
     36 H19         2.9070   -5.6800    7.7330 hc        1 1EY      0.040700
     37 H20         3.0800   -8.1820    7.4960 hc        1 1EY      0.041200
     38 H21         4.8550   -8.0310    7.2000 hc        1 1EY      0.041200
     39 H22         3.3640   -7.0850    9.7470 hc        1 1EY      0.042700
     40 H23         5.1390   -6.9360    9.4500 hc        1 1EY      0.042700
     41 H24         3.5340   -9.5860    9.5100 hc        1 1EY      0.043700
     42 H25         5.3090   -9.4370    9.2140 hc        1 1EY      0.043700
     43 H26         3.8170   -8.4940   11.7670 hc        1 1EY      0.074200
     44 H27         5.5930   -8.3400   11.4720 hc        1 1EY      0.074200
     45 H28         4.3470  -11.1530   11.2040 h4        1 1EY     -0.006800
@<TRIPOS>BOND
     1    1    2 1   
     2    1   18 1   
     3    1   19 1   
     4    1   20 1   
     5    2    3 1   
     6    2   21 1   
     7    2   22 1   
     8    3    4 2   
     9    3   23 1   
    10    4    5 1   
    11    4   24 1   
    12    5    6 2   
    13    5   25 1   
    14    6    7 1   
    15    6   26 1   
    16    7    8 1   
    17    7   27 1   
    18    7   28 1   
    19    8    9 1   
    20    8   29 1   
    21    8   30 1   
    22    9   10 1   
    23    9   31 1   
    24    9   32 1   
    25   10   11 1   
    26   10   33 1   
    27   10   34 1   
    28   11   12 1   
    29   11   35 1   
    30   11   36 1   
    31   12   13 1   
    32   12   37 1   
    33   12   38 1   
    34   13   14 1   
    35   13   39 1   
    36   13   40 1   
    37   14   15 1   
    38   14   41 1   
    39   14   42 1   
    40   15   16 1   
    41   15   43 1   
    42   15   44 1   
    43   16   17 2   
    44   16   45 1   
@<TRIPOS>SUBSTRUCTURE
     1 1EY         1 TEMP              0 ****  ****    0 ROOT
