@<TRIPOS>MOLECULE
molecule
   49    52     1     0     0
SMALL
bcc


@<TRIPOS>ATOM
      1 C10          0.0000     0.0000     0.0000 c          1 1EZ       0.672100
      2 C13         -2.2590     0.0130    -1.0240 c3         1 1EZ      -0.080000
      3 C15         -4.1260     1.2680     0.0610 c3         1 1EZ      -0.209367
      4 C17         -4.1370    -1.2310     0.0560 c3         1 1EZ      -0.209367
      5 C20         -4.8920     1.2750    -1.2630 c3         1 1EZ      -0.043733
      6 C21         -3.0240     0.0190    -2.3480 c3         1 1EZ      -0.075733
      7 C22         -2.6330    -1.2370    -0.2240 c3         1 1EZ      -0.075733
      8 C24          2.2380    -0.4050     3.5450 ca         1 1EZ      -0.003000
      9 N01          5.3470    -0.8810     5.1890 nz         1 1EZ      -0.809500
     10 O03          3.3600     0.2230     6.1500 o          1 1EZ      -0.521800
     11 O04          5.1310     1.5710     5.0130 o          1 1EZ      -0.521800
     12 C05          3.4340     0.2900     3.5950 ca         1 1EZ      -0.376500
     13 C06          3.9370     0.8880     2.4550 ca         1 1EZ      -0.003000
     14 C07          3.2480     0.7940     1.2620 ca         1 1EZ      -0.166000
     15 C08          2.0480     0.0970     1.2080 ca         1 1EZ       0.153600
     16 N09          1.3480     0.0000     0.0000 ns         1 1EZ      -0.481100
     17 O11         -0.6060     0.0000     1.0510 o          1 1EZ      -0.575100
     18 C12         -0.7540     0.0060    -1.3040 c3         1 1EZ      -0.144400
     19 C14         -2.6220     1.2610    -0.2190 c3         1 1EZ      -0.075733
     20 C16         -4.5010     0.0190     0.8620 c3         1 1EZ      -0.043733
     21 C18         -4.9030    -1.2240    -1.2690 c3         1 1EZ      -0.043733
     22 C19         -4.5280     0.0250    -2.0680 c3         1 1EZ      -0.209367
     23 C23          1.5470    -0.5070     2.3530 ca         1 1EZ      -0.166000
     24 H1          -4.3800     2.1450     0.6450 hc         1 1EZ       0.122700
     25 H2          -4.1320    -0.1480     0.0580 hc         1 1EZ       0.122700
     26 H3          -4.5030     2.1090    -1.8340 hc         1 1EZ       0.069033
     27 H4          -5.9460     1.5150    -1.1860 hc         1 1EZ       0.069033
     28 H5          -2.7240    -0.7820    -3.0130 hc         1 1EZ       0.056867
     29 H6          -2.8190     0.9930    -2.7770 hc         1 1EZ       0.056867
     30 H7          -2.3610    -2.1420    -0.7540 hc         1 1EZ       0.056867
     31 H8          -2.0950    -1.2090     0.7160 hc         1 1EZ       0.056867
     32 H9           1.8130    -0.7750     4.4700 ha         1 1EZ       0.158000
     33 H10          5.6300    -1.1410     4.2650 hn         1 1EZ       0.493467
     34 H11          6.0780    -0.6950     5.8470 hn         1 1EZ       0.493467
     35 H12          4.8820     1.4130     2.5280 ha         1 1EZ       0.158000
     36 H13          3.5550     1.3070     0.3580 ha         1 1EZ       0.187000
     37 H14          1.8430    -0.0110    -0.8700 hn         1 1EZ       0.344500
     38 H15         -0.4950     0.8530    -1.9280 hc         1 1EZ       0.073700
     39 H16         -0.5140    -0.8700    -1.8950 hc         1 1EZ       0.073700
     40 H17         -2.0720     1.3070     0.7140 hc         1 1EZ       0.056867
     41 H18         -2.3870     2.1530    -0.7870 hc         1 1EZ       0.056867
     42 H19         -3.9780    -0.0520     1.8080 hc         1 1EZ       0.069033
     43 H20         -5.5720    -0.0240     1.0200 hc         1 1EZ       0.069033
     44 H21         -4.6050    -2.0890    -1.8490 hc         1 1EZ       0.069033
     45 H22         -5.9580    -1.1880    -1.0250 hc         1 1EZ       0.069033
     46 H23         -5.0530     0.0560    -3.0150 hc         1 1EZ       0.122700
     47 H24          0.5620    -0.9290     2.1940 ha         1 1EZ       0.187000
     48 H013         4.7610    -1.6150     5.5360 hn         1 1EZ       0.493467
     49 S02          4.3150     0.4120     5.1150 sy         1 1EZ       1.222200
@<TRIPOS>BOND
     1    18     2 1   
     2    18     1 1   
     3     7     4 1   
     4     7     2 1   
     5    20     4 1   
     6    20     3 1   
     7    19     2 1   
     8    19     3 1   
     9     4    21 1   
    10     2     6 1   
    11     1    17 2   
    12     1    16 1   
    13     3     5 1   
    14    16    15 1   
    15    21    22 1   
    16     6    22 1   
    17    15    14 ar  
    18    15    23 ar  
    19     5    22 1   
    20    14    13 ar  
    21    23     8 ar  
    22    13    12 ar  
    23     8    12 ar  
    24    12    49 1   
    25     9    49 1   
    26    10    49 2   
    27    49    11 2   
    28     3    24 1   
    29     4    25 1   
    30     5    26 1   
    31     5    27 1   
    32     6    28 1   
    33     6    29 1   
    34     7    30 1   
    35     7    31 1   
    36     8    32 1   
    37     9    33 1   
    38     9    34 1   
    39    13    35 1   
    40    14    36 1   
    41    16    37 1   
    42    18    38 1   
    43    18    39 1   
    44    19    40 1   
    45    19    41 1   
    46    20    42 1   
    47    20    43 1   
    48    21    44 1   
    49    21    45 1   
    50    22    46 1   
    51    23    47 1   
    52    48     9 1   
@<TRIPOS>SUBSTRUCTURE
     1 1EZ         1 TEMP              0 ****  ****    0 ROOT
