@<TRIPOS>MOLECULE
1EZ
   49    52     1     0     0
SMALL
bcc


@<TRIPOS>ATOM
      1 C10          0.1900    -0.2100    -0.2640 c          1 1EZ       0.679100
      2 C13         -1.0190     1.2100    -1.9940 c3         1 1EZ      -0.048000
      3 C15         -2.8140     2.8550    -1.4160 c3         1 1EZ      -0.060367
      4 C17         -2.2420     2.4410    -3.8040 c3         1 1EZ      -0.060367
      5 C20         -1.7760     3.9710    -1.3630 c3         1 1EZ      -0.073067
      6 C21          0.0110     2.3410    -1.9440 c3         1 1EZ      -0.068733
      7 C22         -1.5860     1.1200    -3.4200 c3         1 1EZ      -0.068733
      8 C24          4.5270     0.5420     1.9920 ca         1 1EZ       0.049500
      9 N01          5.7110    -1.6400     4.4550 nz         1 1EZ      -0.780500
     10 O03          4.3630     0.0980     5.7600 o          1 1EZ      -0.579300
     11 O04          6.1810     0.8760     4.3920 o          1 1EZ      -0.579300
     12 C05          4.0770     0.1110     3.2690 ca         1 1EZ      -0.651500
     13 C06          2.7200    -0.3030     3.3510 ca         1 1EZ       0.049500
     14 C07          1.8790    -0.3060     2.2680 ca         1 1EZ      -0.219500
     15 C08          2.3410     0.1270     0.9860 ca         1 1EZ       0.229600
     16 N09          1.5610     0.1480    -0.1400 ns         1 1EZ      -0.453100
     17 O11         -0.4570    -0.5850     0.7200 o          1 1EZ      -0.531100
     18 C12         -0.3900    -0.1410    -1.6610 c3         1 1EZ      -0.146400
     19 C14         -2.1640     1.5310    -1.0290 c3         1 1EZ      -0.068733
     20 C16         -3.3740     2.7510    -2.8310 c3         1 1EZ      -0.073067
     21 C18         -1.2030     3.5560    -3.7520 c3         1 1EZ      -0.073067
     22 C19         -0.6440     3.6610    -2.3380 c3         1 1EZ      -0.060367
     23 C23          3.7090     0.5530     0.8920 ca         1 1EZ      -0.219500
     24 S02          4.9960     0.1840     4.5380 sy         1 1EZ       1.516200
     25 H1          -3.6460     3.0810    -0.6980 hc         1 1EZ       0.060700
     26 H2          -2.6530     2.3580    -4.8460 hc         1 1EZ       0.060700
     27 H3          -1.3700     4.0660    -0.3240 hc         1 1EZ       0.049533
     28 H4          -2.2540     4.9460    -1.6370 hc         1 1EZ       0.049533
     29 H5           0.8590     2.1140    -2.6400 hc         1 1EZ       0.041867
     30 H6           0.4210     2.4410    -0.9060 hc         1 1EZ       0.041867
     31 H7          -0.7610     0.8830    -4.1390 hc         1 1EZ       0.041867
     32 H8          -2.3410     0.2940    -3.4700 hc         1 1EZ       0.041867
     33 H9           5.5720     0.8970     1.8920 ha         1 1EZ       0.165500
     34 H10          5.3360    -2.1590     3.6700 hn         1 1EZ       0.447133
     35 H11          5.4810    -2.1430     5.3070 hn         1 1EZ       0.447133
     36 H12          2.3240    -0.6170     4.3370 ha         1 1EZ       0.165500
     37 H13          0.8300    -0.6350     2.3990 ha         1 1EZ       0.186500
     38 H14          1.9850     0.5160    -0.9700 hn         1 1EZ       0.340500
     39 H15         -1.1880    -0.9330    -1.7100 hc         1 1EZ       0.086200
     40 H16          0.3880    -0.3890    -2.4310 hc         1 1EZ       0.086200
     41 H17         -2.9270     0.7100    -1.0650 hc         1 1EZ       0.041867
     42 H18         -1.7710     1.5870     0.0190 hc         1 1EZ       0.041867
     43 H19         -4.1480     1.9420    -2.8760 hc         1 1EZ       0.049533
     44 H20         -3.8660     3.7160    -3.1160 hc         1 1EZ       0.049533
     45 H21         -1.6750     4.5280    -4.0450 hc         1 1EZ       0.049533
     46 H22         -0.3760     3.3420    -4.4760 hc         1 1EZ       0.049533
     47 H23          0.1220     4.4810    -2.2970 hc         1 1EZ       0.060700
     48 H24          4.1090     0.9060    -0.0730 ha         1 1EZ       0.186500
     49 H013         6.7230    -1.6150     4.3680 hn         1 1EZ       0.447133
@<TRIPOS>BOND
     1     1    16 1   
     2     1    17 2   
     3     1    18 1   
     4     2     6 1   
     5     2     7 1   
     6     2    18 1   
     7     2    19 1   
     8     3     5 1   
     9     3    19 1   
    10     3    20 1   
    11     3    25 1   
    12     4     7 1   
    13     4    20 1   
    14     4    21 1   
    15     4    26 1   
    16     5    22 1   
    17     5    27 1   
    18     5    28 1   
    19     6    22 1   
    20     6    29 1   
    21     6    30 1   
    22     7    31 1   
    23     7    32 1   
    24     8    12 ar  
    25     8    23 ar  
    26     8    33 1   
    27     9    24 1   
    28     9    34 1   
    29     9    35 1   
    30     9    49 1   
    31    10    24 2   
    32    11    24 2   
    33    12    13 ar  
    34    12    24 1   
    35    13    14 ar  
    36    13    36 1   
    37    14    15 ar  
    38    14    37 1   
    39    15    16 1   
    40    15    23 ar  
    41    16    38 1   
    42    18    39 1   
    43    18    40 1   
    44    19    41 1   
    45    19    42 1   
    46    20    43 1   
    47    20    44 1   
    48    21    22 1   
    49    21    45 1   
    50    21    46 1   
    51    22    47 1   
    52    23    48 1   
@<TRIPOS>SUBSTRUCTURE
     1 1EZ         1 TEMP              0 ****  ****    0 ROOT
