@<TRIPOS>MOLECULE
1F0
   97   101     1     0     0
SMALL
bcc


@<TRIPOS>ATOM
      1 N1          -0.0890     0.0670     0.2870 n          1 1F0      -0.434300
      2 C5           1.4010     0.1150     0.2070 c3         1 1F0       0.164700
      3 C57          1.8620     1.5080    -0.2220 c3         1 1F0      -0.103100
      4 C51          1.9490    -0.9500    -0.7240 ca         1 1F0      -0.078300
      5 C4           1.8050    -0.2130     1.7500 c3         1 1F0       0.174500
      6 C47          2.2140     1.0680     2.4970 c3         1 1F0      -0.084100
      7 C41          2.9650    -1.1770     1.8550 ca         1 1F0      -0.062300
      8 N3           0.5530    -0.7450     2.3430 n2         1 1F0      -0.617900
      9 C2          -0.4480    -0.5670     1.5100 ce         1 1F0       0.544500
     10 C21         -1.8200    -1.0150     1.8150 ca         1 1F0      -0.162900
     11 C56          1.4090    -2.2450    -0.7140 ca         1 1F0      -0.097500
     12 C55          1.8960    -3.2330    -1.5660 ca         1 1F0      -0.129500
     13 C54          2.9360    -2.9340    -2.4490 ca         1 1F0       0.024400
     14 Cl5          3.5350    -4.1360    -3.4930 cl         1 1F0      -0.101400
     15 C53          3.4820    -1.6490    -2.4790 ca         1 1F0      -0.129500
     16 C52          2.9870    -0.6680    -1.6220 ca         1 1F0      -0.097500
     17 C42          4.2040    -0.8130     1.3080 ca         1 1F0      -0.104500
     18 C43          5.3190    -1.6350     1.4430 ca         1 1F0      -0.128500
     19 C44          5.2020    -2.8440     2.1370 ca         1 1F0       0.020400
     20 Cl4          6.5600    -3.8530     2.3100 cl         1 1F0      -0.099400
     21 C45          3.9760    -3.2220     2.6870 ca         1 1F0      -0.128500
     22 C46          2.8650    -2.3900     2.5470 ca         1 1F0      -0.104500
     23 C10         -0.9070     0.4600    -0.7850 c          1 1F0       0.782100
     24 O10         -0.4550     0.4790    -1.9510 o          1 1F0      -0.605100
     25 N10         -2.2770     0.8060    -0.5420 n          1 1F0      -0.428800
     26 C14         -3.0480     1.0120    -1.7620 c3         1 1F0       0.069500
     27 C13         -4.5520     1.1730    -1.4740 c3         1 1F0       0.162300
     28 N12         -4.8390     2.1800    -0.4610 n3         1 1F0      -0.727600
     29 C12         -4.0430     1.9990     0.7440 c3         1 1F0       0.162300
     30 C11         -2.5360     1.8200     0.4650 c3         1 1F0       0.069500
     31 C22         -2.4350    -0.5910     2.9960 ca         1 1F0      -0.066000
     32 C23         -3.7240    -1.0090     3.3190 ca         1 1F0      -0.171000
     33 C24         -4.4260    -1.8780     2.4760 ca         1 1F0      -0.014300
     34 C30         -5.8260    -2.3410     2.7860 c3         1 1F0      -0.013700
     35 C33         -5.8420    -3.8630     2.9110 c3         1 1F0      -0.086100
     36 C31         -6.7570    -1.9170     1.6520 c3         1 1F0      -0.086100
     37 C25         -3.8060    -2.3340     1.3060 ca         1 1F0      -0.207000
     38 C26         -2.5120    -1.9120     0.9750 ca         1 1F0       0.175100
     39 O27         -1.8250    -2.3710    -0.1270 os         1 1F0      -0.333900
     40 C28         -2.6300    -2.8530    -1.2170 c3         1 1F0       0.131400
     41 C29         -1.7300    -2.8360    -2.4310 c3         1 1F0      -0.113100
     42 C32         -6.3590    -1.7510     4.0860 c3         1 1F0      -0.086100
     43 C16         -6.6570     3.4310     0.7150 c3         1 1F0      -0.060400
     44 C17         -8.1620     3.5930     0.7400 c3         1 1F0      -0.321600
     45 S17         -8.6390     4.7800     1.8740 s6         1 1F0       1.341000
     46 C19        -10.3140     4.5840     1.7560 c3         1 1F0      -0.370300
     47 O17         -8.2820     6.0520     1.4140 o          1 1F0      -0.650800
     48 O18         -8.2150     4.4070     3.1550 o          1 1F0      -0.650800
     49 C15         -6.2680     2.2620    -0.1880 c3         1 1F0       0.178800
     50 H1           1.6120     1.6710    -1.3010 hc         1 1F0       0.054700
     51 H2           2.9650     1.6030    -0.0820 hc         1 1F0       0.054700
     52 H3           1.3630     2.3080     0.3760 hc         1 1F0       0.054700
     53 H4           1.4040     1.8340     2.4560 hc         1 1F0       0.047367
     54 H5           3.1430     1.4950     2.0530 hc         1 1F0       0.047367
     55 H6           2.4170     0.8240     3.5680 hc         1 1F0       0.047367
     56 H10          0.5780    -2.5000    -0.0350 ha         1 1F0       0.144500
     57 H11          1.4590    -4.2430    -1.5390 ha         1 1F0       0.144500
     58 H12          4.2970    -1.4070    -3.1770 ha         1 1F0       0.144500
     59 H13          3.4360     0.3350    -1.6780 ha         1 1F0       0.144500
     60 H14          4.3010     0.1300     0.7470 ha         1 1F0       0.145000
     61 H15          6.2820    -1.3350     1.0040 ha         1 1F0       0.145500
     62 H16          3.8810    -4.1740     3.2320 ha         1 1F0       0.145500
     63 H17          1.9140    -2.7110     3.0000 ha         1 1F0       0.145000
     64 H18         -2.9080     0.1070    -2.4190 h1         1 1F0       0.055200
     65 H19         -2.6760     1.9130    -2.3280 h1         1 1F0       0.055200
     66 H20         -5.0430     1.5020    -2.4330 h1         1 1F0       0.041950
     67 H21         -4.9770     0.1650    -1.1940 h1         1 1F0       0.041950
     68 H23         -4.1540     2.9300     1.3700 h1         1 1F0       0.041950
     69 H24         -4.4020     1.1200     1.3570 h1         1 1F0       0.041950
     70 H25         -2.0530     1.5130     1.4350 h1         1 1F0       0.055200
     71 H26         -2.1050     2.8140     0.1510 h1         1 1F0       0.055200
     72 H27         -1.8910     0.0820     3.6780 ha         1 1F0       0.148000
     73 H28         -4.1730    -0.6440     4.2550 ha         1 1F0       0.143000
     74 H29         -6.8760    -4.2130     3.1460 hc         1 1F0       0.038589
     75 H30         -5.1580    -4.1890     3.7300 hc         1 1F0       0.038589
     76 H31         -5.5130    -4.3420     1.9580 hc         1 1F0       0.038589
     77 H32         -6.7290    -0.8090     1.5220 hc         1 1F0       0.038589
     78 H33         -7.8050    -2.2250     1.8870 hc         1 1F0       0.038589
     79 H34         -6.4530    -2.3970     0.6920 hc         1 1F0       0.038589
     80 H35         -4.3360    -3.0350     0.6440 ha         1 1F0       0.142000
     81 H36         -3.5200    -2.1870    -1.3620 h1         1 1F0       0.038200
     82 H37         -2.9700    -3.8930    -0.9690 h1         1 1F0       0.038200
     83 H38         -2.2600    -3.3120    -3.2890 hc         1 1F0       0.056700
     84 H39         -0.7830    -3.3920    -2.2240 hc         1 1F0       0.056700
     85 H40         -1.4580    -1.7830    -2.6970 hc         1 1F0       0.056700
     86 H41         -7.3980    -2.1210     4.2670 hc         1 1F0       0.038589
     87 H42         -5.7220    -2.0600     4.9490 hc         1 1F0       0.038589
     88 H43         -6.3870    -0.6370     4.0310 hc         1 1F0       0.038589
     89 H44         -6.1840     4.3790     0.3430 hc         1 1F0       0.070200
     90 H45         -6.2890     3.2440     1.7600 hc         1 1F0       0.070200
     91 H46         -8.5070     3.8540    -0.2960 h1         1 1F0       0.109200
     92 H47         -8.6240     2.5970     0.9690 h1         1 1F0       0.109200
     93 H48        -10.6980     4.6330     0.7090 h1         1 1F0       0.117033
     94 H49        -10.8540     5.3910     2.3170 h1         1 1F0       0.117033
     95 H50        -10.6730     3.6180     2.1870 h1         1 1F0       0.117033
     96 H51         -6.7880     2.3900    -1.1810 h1         1 1F0       0.032200
     97 H52         -6.6590     1.3080     0.2790 h1         1 1F0       0.032200
@<TRIPOS>BOND
     1     1     2 1   
     2     1     9 1   
     3     1    23 1   
     4     2     3 1   
     5     2     4 1   
     6     2     5 1   
     7     3    50 1   
     8     3    51 1   
     9     3    52 1   
    10     4    11 ar  
    11     4    16 ar  
    12     5     6 1   
    13     5     7 1   
    14     5     8 1   
    15     6    53 1   
    16     6    54 1   
    17     6    55 1   
    18     7    17 ar  
    19     7    22 ar  
    20     8     9 2   
    21     9    10 1   
    22    10    31 ar  
    23    10    38 ar  
    24    11    12 ar  
    25    11    56 1   
    26    12    13 ar  
    27    12    57 1   
    28    13    14 1   
    29    13    15 ar  
    30    15    16 ar  
    31    15    58 1   
    32    16    59 1   
    33    17    18 ar  
    34    17    60 1   
    35    18    19 ar  
    36    18    61 1   
    37    19    20 1   
    38    19    21 ar  
    39    21    22 ar  
    40    21    62 1   
    41    22    63 1   
    42    23    24 2   
    43    23    25 1   
    44    25    26 1   
    45    25    30 1   
    46    26    27 1   
    47    26    64 1   
    48    26    65 1   
    49    27    28 1   
    50    27    66 1   
    51    27    67 1   
    52    28    29 1   
    53    28    49 1   
    54    29    30 1   
    55    29    68 1   
    56    29    69 1   
    57    30    70 1   
    58    30    71 1   
    59    31    32 ar  
    60    31    72 1   
    61    32    33 ar  
    62    32    73 1   
    63    33    34 1   
    64    33    37 ar  
    65    34    35 1   
    66    34    36 1   
    67    34    42 1   
    68    35    74 1   
    69    35    75 1   
    70    35    76 1   
    71    36    77 1   
    72    36    78 1   
    73    36    79 1   
    74    37    38 ar  
    75    37    80 1   
    76    38    39 1   
    77    39    40 1   
    78    40    41 1   
    79    40    81 1   
    80    40    82 1   
    81    41    83 1   
    82    41    84 1   
    83    41    85 1   
    84    42    86 1   
    85    42    87 1   
    86    42    88 1   
    87    43    44 1   
    88    43    49 1   
    89    43    89 1   
    90    43    90 1   
    91    44    45 1   
    92    44    91 1   
    93    44    92 1   
    94    45    46 1   
    95    45    47 2   
    96    45    48 2   
    97    46    93 1   
    98    46    94 1   
    99    46    95 1   
   100    49    96 1   
   101    49    97 1   
@<TRIPOS>SUBSTRUCTURE
     1 1F0         1 TEMP              0 ****  ****    0 ROOT
