@<TRIPOS>MOLECULE
molecule
   97   101     1     0     0
SMALL
bcc


@<TRIPOS>ATOM
      1 N1           0.0000     0.0000     0.0000 n          1 1F0      -0.425300
      2 C5           1.4730     0.0000     0.0000 c3         1 1F0       0.119700
      3 C57          2.0120     1.2590    -0.6820 c3         1 1F0      -0.132100
      4 C51          2.0040    -1.2390    -0.6720 ca         1 1F0      -0.090300
      5 C4           1.8270     0.0000     1.5000 c3         1 1F0       0.173500
      6 C47          2.6180     1.2570     1.8630 c3         1 1F0      -0.074100
      7 C41          2.6100    -1.2370     1.8570 ca         1 1F0      -0.067300
      8 N3           0.5240    -0.0000     2.1780 n2         1 1F0      -0.628900
      9 C2          -0.4320     0.0000     1.3080 ce         1 1F0       0.560500
     10 C21         -1.8610     0.0000     1.6840 ca         1 1F0      -0.153900
     11 C56          3.3410    -1.3190    -1.0180 ca         1 1F0      -0.115500
     12 C55          3.8280    -2.4550    -1.6340 ca         1 1F0      -0.116500
     13 C54          2.9790    -3.5140    -1.9050 ca         1 1F0       0.027400
     14 Cl5          3.5930    -4.9420    -2.6780 cl         1 1F0      -0.105400
     15 C53          1.6430    -3.4340    -1.5580 ca         1 1F0      -0.116500
     16 C52          1.1570    -2.2990    -0.9370 ca         1 1F0      -0.115500
     17 C42          3.9850    -1.2500     1.7120 ca         1 1F0      -0.103500
     18 C43          4.7040    -2.3840     2.0380 ca         1 1F0      -0.123000
     19 C44          4.0480    -3.5060     2.5120 ca         1 1F0       0.032400
     20 Cl4          4.9500    -4.9310     2.9220 cl         1 1F0      -0.111400
     21 C45          2.6720    -3.4930     2.6570 ca         1 1F0      -0.123000
     22 C46          1.9550    -2.3570     2.3340 ca         1 1F0      -0.103500
     23 C10         -0.7900     0.0060    -1.0930 c          1 1F0       0.807100
     24 O10         -1.9840    -0.1910    -0.9800 o          1 1F0      -0.629100
     25 N10         -0.2560     0.2280    -2.3090 n          1 1F0      -0.495800
     26 C14          1.2010     0.3220    -2.4890 c3         1 1F0       0.074500
     27 C13          1.6150    -0.6220    -3.6220 c3         1 1F0       0.140800
     28 N12          0.8220    -0.3210    -4.8210 n3         1 1F0      -0.731600
     29 C12         -0.6090    -0.5640    -4.5880 c3         1 1F0       0.140800
     30 C11         -1.1130     0.3770    -3.4950 c3         1 1F0       0.074500
     31 C22         -2.3900    -1.0520     2.4330 ca         1 1F0      -0.048000
     32 C23         -3.7250    -1.0450     2.7800 ca         1 1F0      -0.178000
     33 C24         -4.5430     0.0000     2.3880 ca         1 1F0      -0.011300
     34 C30         -6.0000    -0.0030     2.7740 c3         1 1F0      -0.027700
     35 C33         -6.3320     1.2860     3.5290 c3         1 1F0      -0.080433
     36 C31         -6.8610    -0.0910     1.5120 c3         1 1F0      -0.080433
     37 C25         -4.0320     1.0470     1.6470 ca         1 1F0      -0.221000
     38 C26         -2.6910     1.0590     1.2940 ca         1 1F0       0.204100
     39 O27         -2.1860     2.0890     0.5690 os         1 1F0      -0.326900
     40 C28         -3.0920     3.1340     0.2070 c3         1 1F0       0.137400
     41 C29         -2.3460     4.1980    -0.6000 c3         1 1F0      -0.093100
     42 C32         -6.2870    -1.2080     3.6730 c3         1 1F0      -0.080433
     43 C16          0.7410    -0.4760    -7.2630 c3         1 1F0      -0.058400
     44 C17          1.2440    -1.2720    -8.4690 c3         1 1F0      -0.210600
     45 S17          0.5750    -0.5500    -9.9920 s6         1 1F0       1.101000
     46 C19          1.2870    -1.6310   -11.2630 c3         1 1F0      -0.228300
     47 O17         -0.8360    -0.7190    -9.9920 o          1 1F0      -0.611800
     48 O18          1.1180     0.7540   -10.1510 o          1 1F0      -0.611800
     49 C15          1.3040    -1.0850    -5.9780 c3         1 1F0       0.171800
     50 H1           2.4280     1.9240     0.0650 hc         1 1F0       0.062700
     51 H2           1.2060     1.7610    -1.2030 hc         1 1F0       0.062700
     52 H3           2.7840     0.9840    -1.3900 hc         1 1F0       0.062700
     53 H4           3.4820     1.3400     1.2150 hc         1 1F0       0.049367
     54 H5           2.9460     1.1930     2.8940 hc         1 1F0       0.049367
     55 H6           1.9880     2.1290     1.7390 hc         1 1F0       0.049367
     56 H10          4.0050    -0.4900    -0.8060 ha         1 1F0       0.149000
     57 H11          4.8750    -2.5170    -1.9050 ha         1 1F0       0.148500
     58 H12          0.9780    -4.2630    -1.7670 ha         1 1F0       0.148500
     59 H13          0.1100    -2.2360    -0.6650 ha         1 1F0       0.149000
     60 H14          4.4990    -0.3710     1.3410 ha         1 1F0       0.141500
     61 H15          5.7810    -2.3940     1.9250 ha         1 1F0       0.143500
     62 H16          2.1580    -4.3710     3.0290 ha         1 1F0       0.143500
     63 H17          0.8780    -2.3460     2.4480 ha         1 1F0       0.141500
     64 H18          1.4700     1.3390    -2.7470 h1         1 1F0       0.082200
     65 H19          1.7000     0.0290    -1.5720 h1         1 1F0       0.082200
     66 H20          1.4360    -1.6470    -3.3200 h1         1 1F0       0.045200
     67 H21          2.6670    -0.4830    -3.8410 h1         1 1F0       0.045200
     68 H23         -1.1590    -0.3800    -5.5030 h1         1 1F0       0.045200
     69 H24         -0.7530    -1.5910    -4.2750 h1         1 1F0       0.045200
     70 H25         -2.1330     0.1200    -3.2380 h1         1 1F0       0.082200
     71 H26         -1.0670     1.4000    -3.8480 h1         1 1F0       0.082200
     72 H27         -1.7540    -1.8720     2.7410 ha         1 1F0       0.138000
     73 H28         -4.1350    -1.8620     3.3610 ha         1 1F0       0.140000
     74 H29         -6.3600     2.1150     2.8320 hc         1 1F0       0.037589
     75 H30         -5.5730     1.4700     4.2790 hc         1 1F0       0.037589
     76 H31         -7.2980     1.1860     4.0090 hc         1 1F0       0.037589
     77 H32         -7.9020    -0.2060     1.7920 hc         1 1F0       0.037589
     78 H33         -6.5500    -0.9440     0.9220 hc         1 1F0       0.037589
     79 H34         -6.7420     0.8140     0.9300 hc         1 1F0       0.037589
     80 H35         -4.6780     1.8630     1.3460 ha         1 1F0       0.139000
     81 H36         -3.8960     2.7230    -0.3910 h1         1 1F0       0.037200
     82 H37         -3.5020     3.5820     1.1040 h1         1 1F0       0.037200
     83 H38         -1.6990     4.7640     0.0590 hc         1 1F0       0.047033
     84 H39         -1.7500     3.7180    -1.3670 hc         1 1F0       0.047033
     85 H40         -3.0620     4.8660    -1.0650 hc         1 1F0       0.047033
     86 H41         -5.6550    -1.1620     4.5510 hc         1 1F0       0.037589
     87 H42         -6.0820    -2.1220     3.1280 hc         1 1F0       0.037589
     88 H43         -7.3270    -1.1930     3.9750 hc         1 1F0       0.037589
     89 H44         -0.3420    -0.5090    -7.2350 hc         1 1F0       0.066700
     90 H45          1.0680     0.5530    -7.3490 hc         1 1F0       0.066700
     91 H46          2.3260    -1.2380    -8.4980 h1         1 1F0       0.094200
     92 H47          0.9170    -2.3020    -8.3840 h1         1 1F0       0.094200
     93 H48          2.3660    -1.5310   -11.2600 h1         1 1F0       0.097367
     94 H49          1.0190    -2.6600   -11.0540 h1         1 1F0       0.097367
     95 H50          0.9010    -1.3480   -12.2350 h1         1 1F0       0.097367
     96 H51          2.3870    -1.0520    -6.0070 h1         1 1F0       0.036700
     97 H52          0.9770    -2.1150    -5.8930 h1         1 1F0       0.036700
@<TRIPOS>BOND
     1    14    13 1
     2    15    13 ar
     3    15    16 ar
     4    13    12 ar
     5    16     4 ar
     6    20    19 1
     7    12    11 ar
     8    19    18 ar
     9    19    21 ar
    10     4    11 ar
    11     4     2 1
    12    18    17 ar
    13    21    22 ar
    14     3     2 1
    15    24    23 2
    16    17     7 ar
    17    41    40 1
    18     2     5 1
    19     2     1 1
    20    22     7 ar
    21     7     5 1
    22    23     1 1
    23    23    25 1
    24     5     6 1
    25     5     8 1
    26     1     9 1
    27    40    39 1
    28    39    38 1
    29    26    25 1
    30    26    27 1
    31    25    30 1
    32     8     9 2
    33     9    10 1
    34    38    10 ar
    35    38    37 ar
    36    27    28 1
    37    30    29 1
    38    10    31 ar
    39    37    33 ar
    40    28    29 1
    41    28    49 1
    42    31    32 ar
    43    33    32 ar
    44    33    34 1
    45    49    43 1
    46    36    34 1
    47    35    34 1
    48    34    42 1
    49    43    44 1
    50    44    45 1
    51    45    48 2
    52    45    47 2
    53    45    46 1
    54     3    50 1
    55     3    51 1
    56     3    52 1
    57     6    53 1
    58     6    54 1
    59     6    55 1
    60    11    56 1
    61    12    57 1
    62    15    58 1
    63    16    59 1
    64    17    60 1
    65    18    61 1
    66    21    62 1
    67    22    63 1
    68    26    64 1
    69    26    65 1
    70    27    66 1
    71    27    67 1
    72    29    68 1
    73    29    69 1
    74    30    70 1
    75    30    71 1
    76    31    72 1
    77    32    73 1
    78    35    74 1
    79    35    75 1
    80    35    76 1
    81    36    77 1
    82    36    78 1
    83    36    79 1
    84    37    80 1
    85    40    81 1
    86    40    82 1
    87    41    83 1
    88    41    84 1
    89    41    85 1
    90    42    86 1
    91    42    87 1
    92    42    88 1
    93    43    89 1
    94    43    90 1
    95    44    91 1
    96    44    92 1
    97    46    93 1
    98    46    94 1
    99    46    95 1
   100    49    96 1
   101    49    97 1
@<TRIPOS>SUBSTRUCTURE
     1 1F0         1 TEMP              0 ****  ****    0 ROOT
