@<TRIPOS>MOLECULE
1F1
   18    19     1     0     0
SMALL
bcc


@<TRIPOS>ATOM
      1 O1           0.0490    -0.3050     0.0110 o          1 1F1      -0.832300
      2 C2           1.2800    -0.0200     0.0420 c          1 1F1       0.907200
      3 O3           1.9250     0.2200     1.1020 o          1 1F1      -0.832300
      4 C4           2.0340     0.0360    -1.2810 ca         1 1F1      -0.107600
      5 C5           1.3580    -0.2680    -2.4820 ca         1 1F1      -0.120000
      6 C6           2.0010    -0.2430    -3.7090 ca         1 1F1      -0.129000
      7 C7           3.3580     0.0880    -3.7540 ca         1 1F1      -0.113800
      8 C8           4.3390     0.1970    -4.8130 cc         1 1F1      -0.186200
      9 C9           5.5440     0.5600    -4.2230 cd         1 1F1      -0.156100
     10 N10          5.3700     0.7600    -2.8440 na         1 1F1      -0.194400
     11 C11          4.0450     0.4090    -2.5260 ca         1 1F1      -0.069200
     12 C12          3.3800     0.3810    -1.2920 ca         1 1F1      -0.126000
     13 H5           0.2890    -0.5270    -2.4050 ha         1 1F1       0.152000
     14 H6           1.4630    -0.4780    -4.6370 ha         1 1F1       0.108000
     15 H8           4.1540     0.0310    -5.8680 ha         1 1F1       0.134000
     16 H9           6.5150     0.7380    -4.6840 h4         1 1F1       0.140000
     17 H12          3.8840     0.6180    -0.3440 ha         1 1F1       0.153000
     18 HN10         6.1060     0.7110    -2.1900 hn         1 1F1       0.273700
@<TRIPOS>BOND
     1     1     2 1   
     2     2     3 1   
     3     2     4 1   
     4     4     5 ar  
     5     4    12 ar  
     6     5     6 ar  
     7     5    13 1   
     8     6     7 ar  
     9     6    14 1   
    10     7     8 1   
    11     7    11 ar  
    12     8     9 2   
    13     8    15 1   
    14     9    10 1   
    15     9    16 1   
    16    10    11 1   
    17    10    18 1   
    18    11    12 ar  
    19    12    17 1   
@<TRIPOS>SUBSTRUCTURE
     1 1F1         1 TEMP              0 ****  ****    0 ROOT
