@<TRIPOS>MOLECULE
molecule
   18    19     1     0     0
SMALL
bcc


@<TRIPOS>ATOM
      1 O1           0.0000     0.0000     0.0000 o          1 1F1      -0.839300
      2 C2           1.2160     0.0000     0.0000 c          1 1F1       0.883200
      3 O3           1.8890     0.0000     1.1670 o          1 1F1      -0.839300
      4 C4           1.9520    -0.0070    -1.2770 ca         1 1F1      -0.080600
      5 C5           3.3550    -0.0070    -1.2730 ca         1 1F1      -0.109000
      6 C6           4.0470    -0.0140    -2.4470 ca         1 1F1      -0.128000
      7 C7           3.3570    -0.0210    -3.6640 ca         1 1F1      -0.118800
      8 C8           3.7770    -0.0290    -5.0660 cc         1 1F1      -0.209200
      9 C9           2.6580    -0.0330    -5.8110 cd         1 1F1      -0.136100
     10 N10          1.5580    -0.0280    -5.0030 na         1 1F1      -0.190400
     11 C11          1.9480    -0.0200    -3.6810 ca         1 1F1      -0.056200
     12 C12          1.2510    -0.0190    -2.4820 ca         1 1F1      -0.132000
     13 H5           3.8910    -0.0010    -0.3320 ha         1 1F1       0.154000
     14 H6           5.1300    -0.0140    -2.4370 ha         1 1F1       0.106000
     15 H8           4.7960    -0.0320    -5.4330 ha         1 1F1       0.133000
     16 H9           2.6330    -0.0390    -6.8940 h4         1 1F1       0.140000
     17 H12          0.1750    -0.1380    -2.4810 ha         1 1F1       0.142000
     18 HN10         0.6090    -0.0290    -5.3220 hn         1 1F1       0.281700
@<TRIPOS>BOND
     1     1     2 1
     2     2     3 1
     3     2     4 1
     4     4     5 ar
     5     4    12 ar
     6     5     6 ar
     7     5    13 1
     8     6     7 ar
     9     6    14 1
    10    11     7 ar
    11     7     8 1
    12     8     9 2
    13     8    15 1
    14    10     9 1
    15     9    16 1
    16    11    10 1
    17    12    11 ar
    18    12    17 1
    19    10    18 1
@<TRIPOS>SUBSTRUCTURE
     1 1F1         1 TEMP              0 ****  ****    0 ROOT
