@<TRIPOS>MOLECULE
1F6
   51    53     1     0     0
SMALL
bcc


@<TRIPOS>ATOM
      1 C1           0.0600     0.4230    -0.1770 ca         1 1F6      -0.160300
      2 C2           1.4470     0.3400    -0.1850 ca         1 1F6      -0.071000
      3 C3           2.1650     0.1900     1.0200 ca         1 1F6       0.000600
      4 C4           1.4480     0.1180     2.2500 ca         1 1F6       0.059600
      5 C5           0.0380     0.2080     2.2210 ca         1 1F6      -0.142000
      6 C6          -0.6480     0.3630     1.0240 ca         1 1F6      -0.056000
      7 N7           3.5860     0.1360     0.9620 n          1 1F6      -0.251200
      8 C8           4.2830    -0.9340     1.4820 c          1 1F6       0.702700
      9 C9           3.6610    -1.7350     2.5850 cc         1 1F6      -0.143400
     10 C10          3.0500    -0.9910     3.7370 c          1 1F6       0.702700
     11 N11          2.1100    -0.0050     3.4930 n          1 1F6      -0.357000
     12 C12          3.8070    -3.0680     2.7030 c2         1 1F6      -0.018000
     13 N13          4.5640    -3.8960     1.7700 ny         1 1F6      -0.654800
     14 C14          5.4830    -4.8360     2.4960 c3         1 1F6       0.109800
     15 C15          4.8360    -6.1830     2.8240 c3         1 1F6       0.101400
     16 O16          3.6240    -5.9180     3.5160 os         1 1F6      -0.461600
     17 C17          3.1260    -7.0460     4.2310 c3         1 1F6       0.116700
     18 C18          4.2410     1.0950     0.1190 ca         1 1F6      -0.001400
     19 C19          4.1150     2.4670     0.4180 ca         1 1F6      -0.113500
     20 C20          4.7470     3.4090    -0.3900 ca         1 1F6      -0.115500
     21 C21          5.5080     3.0060    -1.4870 ca         1 1F6      -0.103000
     22 C22          5.6410     1.6500    -1.7790 ca         1 1F6      -0.115500
     23 C23          5.0130     0.6910    -0.9870 ca         1 1F6      -0.113500
     24 C24          1.5770     0.7280     4.6220 c3         1 1F6       0.070300
     25 C25         -0.6890     0.5600    -1.5020 c3         1 1F6       0.691200
     26 F26         -0.0330     1.3150    -2.4420 f          1 1F6      -0.224633
     27 F27         -1.9290     1.1350    -1.3930 f          1 1F6      -0.224633
     28 F28         -0.9170    -0.6430    -2.1260 f          1 1F6      -0.224633
     29 O29          5.4270    -1.2620     1.0900 o          1 1F6      -0.643500
     30 O30          3.4420    -1.2480     4.8890 o          1 1F6      -0.577500
     31 H1           1.9880     0.4180    -1.1470 ha         1 1F6       0.177000
     32 H2          -0.5350     0.1630     3.1630 ha         1 1F6       0.165000
     33 H3          -1.7500     0.4410     1.0220 ha         1 1F6       0.176000
     34 H5           3.3770    -3.6510     3.5530 hx         1 1F6       0.237000
     35 H6           6.3780    -5.0140     1.8320 hx         1 1F6       0.121200
     36 H7           5.8230    -4.3300     3.4460 hx         1 1F6       0.121200
     37 H8           4.6080    -6.7680     1.8920 h1         1 1F6       0.074200
     38 H9           5.5520    -6.7670     3.4640 h1         1 1F6       0.074200
     39 H10          2.1770    -6.6730     4.6920 h1         1 1F6       0.058033
     40 H11          3.8550    -7.3570     5.0190 h1         1 1F6       0.058033
     41 H12          2.9230    -7.8900     3.5280 h1         1 1F6       0.058033
     42 H13          3.5210     2.8020     1.2820 ha         1 1F6       0.143500
     43 H14          4.6450     4.4800    -0.1530 ha         1 1F6       0.151000
     44 H15          6.0060     3.7590    -2.1190 ha         1 1F6       0.153000
     45 H16          6.2460     1.3280    -2.6410 ha         1 1F6       0.151000
     46 H17          5.1460    -0.3770    -1.2170 ha         1 1F6       0.143500
     47 H18          0.7750     0.1350     5.1380 h1         1 1F6       0.069700
     48 H19          1.1550     1.7030     4.2640 h1         1 1F6       0.069700
     49 H20          2.4080     0.9240     5.3540 h1         1 1F6       0.069700
     50 H4           5.1310    -3.2980     1.1400 hn         1 1F6       0.472300
     51 H132         3.8980    -4.4460     1.2110 hn         1 1F6       0.472300
@<TRIPOS>BOND
     1     1     2 ar  
     2     1     6 ar  
     3     1    25 1   
     4     2     3 ar  
     5     2    31 1   
     6     3     4 ar  
     7     3     7 1   
     8     4     5 ar  
     9     4    11 1   
    10     5     6 ar  
    11     5    32 1   
    12     6    33 1   
    13     7     8 1   
    14     7    18 1   
    15     8     9 1   
    16     8    29 2   
    17     9    10 1   
    18     9    12 2   
    19    10    11 1   
    20    10    30 2   
    21    11    24 1   
    22    12    13 1   
    23    12    34 1   
    24    13    14 1   
    25    13    50 1   
    26    13    51 1   
    27    14    15 1   
    28    14    35 1   
    29    14    36 1   
    30    15    16 1   
    31    15    37 1   
    32    15    38 1   
    33    16    17 1   
    34    17    39 1   
    35    17    40 1   
    36    17    41 1   
    37    18    19 ar  
    38    18    23 ar  
    39    19    20 ar  
    40    19    42 1   
    41    20    21 ar  
    42    20    43 1   
    43    21    22 ar  
    44    21    44 1   
    45    22    23 ar  
    46    22    45 1   
    47    23    46 1   
    48    24    47 1   
    49    24    48 1   
    50    24    49 1   
    51    25    26 1   
    52    25    27 1   
    53    25    28 1   
@<TRIPOS>SUBSTRUCTURE
     1 1F6         1 TEMP              0 ****  ****    0 ROOT
