@<TRIPOS>MOLECULE
molecule
   50    52     1     0     0
SMALL
bcc


@<TRIPOS>ATOM
      1 C1           0.0000     0.0000     0.0000 ca         1 1F6      -0.184300
      2 C2           1.3770     0.0000     0.0000 ca         1 1F6      -0.089000
      3 C3           2.0960     0.0000     1.2000 ca         1 1F6       0.045600
      4 C4           1.4070     0.0010     2.4020 ca         1 1F6       0.084600
      5 C5           0.0090     0.0010     2.3890 ca         1 1F6      -0.153000
      6 C6          -0.6880     0.0010     1.2000 ca         1 1F6      -0.080000
      7 N7           3.4840    -0.0010     1.0850 n          1 1F6      -0.292200
      8 C8           4.3240    -0.7210     1.8300 c          1 1F6       0.738700
      9 C9           3.8090    -1.4860     2.9810 cc         1 1F6      -0.442400
     10 C10          3.0770    -0.7200     4.0050 c          1 1F6       0.747700
     11 N11          2.0090     0.0010     3.6570 n          1 1F6      -0.384000
     12 C12          4.0000    -2.8460     3.0910 c2         1 1F6       0.224000
     13 N13          4.6770    -3.5140     2.1310 nu         1 1F6      -0.768000
     14 C14          4.8810    -4.9590     2.2490 c3         1 1F6       0.224800
     15 C15          5.6680    -5.4640     1.0380 c3         1 1F6       0.121400
     16 O16          6.9790    -4.8940     1.0520 os         1 1F6      -0.422600
     17 C17          7.8020    -5.3030    -0.0420 c3         1 1F6       0.129700
     18 C18          4.0450     0.8240     0.1040 ca         1 1F6       0.033600
     19 C19          4.2560     2.1720     0.3650 ca         1 1F6      -0.113500
     20 C20          4.8110     2.9830    -0.6060 ca         1 1F6      -0.122500
     21 C21          5.1550     2.4540    -1.8360 ca         1 1F6      -0.119000
     22 C22          4.9470     1.1130    -2.1000 ca         1 1F6      -0.122500
     23 C23          4.3980     0.2950    -1.1310 ca         1 1F6      -0.113500
     24 C24          1.4210     0.8660     4.6830 c3         1 1F6       0.088300
     25 C25         -0.7550     0.0050    -1.3040 c3         1 1F6       0.677200
     26 F26         -0.9890    -1.3120    -1.7120 f          1 1F6      -0.222967
     27 F27         -1.9780     0.6640    -1.1320 f          1 1F6      -0.222967
     28 F28         -0.0010     0.6680    -2.2770 f          1 1F6      -0.222967
     29 O29          5.5110    -0.7460     1.5610 o          1 1F6      -0.617500
     30 O30          3.4440    -0.7440     5.1650 o          1 1F6      -0.626500
     31 H1           1.9110    -0.0010    -0.9420 ha         1 1F6       0.162000
     32 H2          -0.5340     0.0020     3.3260 ha         1 1F6       0.149000
     33 H3          -1.7710     0.0010     1.2050 ha         1 1F6       0.151000
     34 H5           3.6100    -3.3800     3.9490 h4         1 1F6       0.162000
     35 H6           3.9200    -5.4580     2.2870 h1         1 1F6       0.055700
     36 H7           5.4350    -5.1730     3.1540 h1         1 1F6       0.055700
     37 H8           5.7430    -6.5440     1.0800 h1         1 1F6       0.035200
     38 H9           5.1580    -5.1720     0.1280 h1         1 1F6       0.035200
     39 H10          7.3230    -5.0310    -0.9750 h1         1 1F6       0.033700
     40 H11          8.7650    -4.8100     0.0260 h1         1 1F6       0.033700
     41 H12          7.9430    -6.3760    -0.0080 h1         1 1F6       0.033700
     42 H13          3.9870     2.5870     1.3280 ha         1 1F6       0.138000
     43 H14          4.9760     4.0340    -0.4030 ha         1 1F6       0.134500
     44 H15          5.5880     3.0930    -2.5960 ha         1 1F6       0.132000
     45 H16          5.2200     0.7020    -3.0640 ha         1 1F6       0.134500
     46 H17          4.2350    -0.7560    -1.3380 ha         1 1F6       0.138000
     47 H18          0.9140     1.6960     4.2070 h1         1 1F6       0.051033
     48 H19          0.7110     0.2980     5.2700 h1         1 1F6       0.051033
     49 H20          2.2040     1.2430     5.3290 h1         1 1F6       0.051033
     50 H4           5.0380    -3.0200     1.3380 hn         1 1F6       0.468800
@<TRIPOS>BOND
     1    17    16 1   
     2    15    16 1   
     3    15    14 1   
     4    28    25 1   
     5    14    13 1   
     6    13    12 1   
     7    25    26 1   
     8    25    27 1   
     9    25     1 1   
    10    12     9 2   
    11     1     2 ar  
    12     1     6 ar  
    13     2     3 ar  
    14    29     8 2   
    15     6     5 ar  
    16    23    22 ar  
    17    23    18 ar  
    18     8     9 1   
    19     8     7 1   
    20     9    10 1   
    21     3     7 1   
    22     3     4 ar  
    23    22    21 ar  
    24     7    18 1   
    25     5     4 ar  
    26     4    11 1   
    27    18    19 ar  
    28    10    11 1   
    29    10    30 2   
    30    11    24 1   
    31    21    20 ar  
    32    19    20 ar  
    33     2    31 1   
    34     5    32 1   
    35     6    33 1   
    36    12    34 1   
    37    14    35 1   
    38    14    36 1   
    39    15    37 1   
    40    15    38 1   
    41    17    39 1   
    42    17    40 1   
    43    17    41 1   
    44    19    42 1   
    45    20    43 1   
    46    21    44 1   
    47    22    45 1   
    48    23    46 1   
    49    24    47 1   
    50    24    48 1   
    51    24    49 1   
    52    13    50 1   
@<TRIPOS>SUBSTRUCTURE
     1 1F6         1 TEMP              0 ****  ****    0 ROOT
