@<TRIPOS>MOLECULE
1F7
   85    84     1     0     0
SMALL
bcc


@<TRIPOS>ATOM
      1 O1P         7.6550   -4.6140    2.0700 o         1 1F7     -0.923500
      2 P           7.1440   -4.4610    0.6570 p5        1 1F7      1.348900
      3 O2P         6.0560   -5.5040    0.4680 o         1 1F7     -0.923500
      4 O3P         6.2020   -3.0260    0.7340 os        1 1F7     -0.560200
      5 C1         10.0500   -7.7480    6.1080 c         1 1F7      0.526700
      6 O1C        10.1630   -8.8830    5.6130 o         1 1F7     -0.582100
      7 C2         10.6650   -7.4400    7.4530 c3        1 1F7     -0.217400
      8 C3         12.0710   -8.0210    7.5770 c3        1 1F7      0.159100
      9 O3C        12.0310   -9.4320    7.7510 oh        1 1F7     -0.626800
     10 C4         12.7840   -7.4430    8.7970 c3        1 1F7     -0.075400
     11 C5         14.2390   -7.8590    8.8300 c3        1 1F7     -0.078400
     12 C6         14.9330   -7.3320   10.0670 c3        1 1F7     -0.077400
     13 C7         16.3910   -7.7390   10.0940 c3        1 1F7     -0.079400
     14 C8         17.0850   -7.2170   11.3330 c3        1 1F7     -0.078400
     15 C9         18.5430   -7.6240   11.3590 c3        1 1F7     -0.079400
     16 C10        19.2380   -7.1030   12.5990 c3        1 1F7     -0.078400
     17 C11        20.6960   -7.5090   12.6240 c3        1 1F7     -0.079400
     18 C12        21.3910   -6.9880   13.8640 c3        1 1F7     -0.079400
     19 C13        22.8500   -7.3940   13.8900 c3        1 1F7     -0.080400
     20 C14        23.5460   -6.8770   15.1230 c3        1 1F7     -0.091100
     21 C28         5.2880   -3.0030    1.7570 c3        1 1F7      0.231400
     22 C29         3.8280   -2.7900    1.2550 c3        1 1F7     -0.109000
     23 C30         3.5340   -1.2920    1.3100 c3        1 1F7     -0.080100
     24 C31         3.6580   -3.2520   -0.1800 c3        1 1F7     -0.080100
     25 C32         2.7940   -3.4890    2.1580 c3        1 1F7      0.092100
     26 O33         3.0730   -3.3350    3.5390 oh        1 1F7     -0.615800
     27 C34         2.5280   -4.9770    1.8530 c         1 1F7      0.621100
     28 O35         1.3340   -5.3560    1.7360 o         1 1F7     -0.693100
     29 N36         3.5830   -5.8490    1.8360 n         1 1F7     -0.541900
     30 C37         3.3620   -7.2470    1.5670 c3        1 1F7      0.111000
     31 C38         4.6560   -8.0150    1.3010 c3        1 1F7     -0.174400
     32 C39         5.4640   -8.1760    2.5770 c         1 1F7      0.660100
     33 O40         5.3350   -9.2190    3.2750 o         1 1F7     -0.723100
     34 N41         6.3030   -7.1590    2.9360 n         1 1F7     -0.542900
     35 C42         7.0790   -7.2160    4.1420 c3        1 1F7      0.120000
     36 C43         8.5220   -6.7660    3.9530 c3        1 1F7     -0.079300
     37 S44         9.2890   -6.3700    5.4920 ss        1 1F7     -0.188700
     38 O1          8.1030   -4.1970   -0.4510 o         1 1F7     -0.923500
     39 H2         10.0100   -7.8880    8.2460 hc        1 1F7      0.074700
     40 H3         10.7000   -6.3310    7.6130 hc        1 1F7      0.074700
     41 H4         12.6570   -7.7860    6.6430 h1        1 1F7      0.041700
     42 H5         11.5040   -9.7870    7.0190 ho        1 1F7      0.434000
     43 H6         12.7070   -6.3260    8.7620 hc        1 1F7      0.044200
     44 H7         12.2670   -7.7990    9.7250 hc        1 1F7      0.044200
     45 H8         14.2990   -8.9790    8.8040 hc        1 1F7      0.048700
     46 H9         14.7610   -7.4770    7.9130 hc        1 1F7      0.048700
     47 H10        14.8540   -6.2130   10.0960 hc        1 1F7      0.035700
     48 H11        14.4160   -7.7230   10.9830 hc        1 1F7      0.035700
     49 H12        16.9070   -7.3460    9.1790 hc        1 1F7      0.039700
     50 H13        16.4680   -8.8580   10.0610 hc        1 1F7      0.039700
     51 H14        16.5690   -7.6110   12.2480 hc        1 1F7      0.037700
     52 H15        17.0060   -6.0990   11.3660 hc        1 1F7      0.037700
     53 H16        19.0590   -7.2290   10.4440 hc        1 1F7      0.039200
     54 H17        18.6220   -8.7420   11.3260 hc        1 1F7      0.039200
     55 H18        19.1590   -5.9840   12.6310 hc        1 1F7      0.038200
     56 H19        18.7220   -7.4970   13.5130 hc        1 1F7      0.038200
     57 H20        21.2120   -7.1150   11.7100 hc        1 1F7      0.039200
     58 H21        20.7750   -8.6280   12.5910 hc        1 1F7      0.039200
     59 H22        20.8750   -7.3820   14.7780 hc        1 1F7      0.038200
     60 H23        21.3120   -5.8690   13.8970 hc        1 1F7      0.038200
     61 H24        23.3630   -7.0000   12.9740 hc        1 1F7      0.038200
     62 H25        22.9260   -8.5130   13.8550 hc        1 1F7      0.038200
     63 H26        24.6190   -7.1870   15.1220 hc        1 1F7      0.030033
     64 H27        23.0630   -7.2790   16.0460 hc        1 1F7      0.030033
     65 H28        23.5010   -5.7620   15.1620 hc        1 1F7      0.030033
     66 H29         5.3660   -3.9460    2.3700 h1        1 1F7     -0.004800
     67 H30         5.5200   -2.1390    2.4530 h1        1 1F7     -0.004800
     68 H31         4.3410   -0.7390    0.7720 hc        1 1F7      0.030700
     69 H32         3.4990   -0.9460    2.3710 hc        1 1F7      0.030700
     70 H33         2.5540   -1.0610    0.8270 hc        1 1F7      0.030700
     71 H34         3.9710   -4.3170   -0.3060 hc        1 1F7      0.030700
     72 H35         4.3120   -2.6340   -0.8430 hc        1 1F7      0.030700
     73 H36         2.5930   -3.1390   -0.5010 hc        1 1F7      0.030700
     74 H37         1.7950   -2.9720    2.0330 h1        1 1F7      0.064700
     75 H38         3.9450   -3.7150    3.7080 ho        1 1F7      0.419000
     76 H39         4.5020   -5.4970    1.5430 hn        1 1F7      0.399500
     77 H40         2.8240   -7.7000    2.4490 h1        1 1F7      0.023700
     78 H41         2.6860   -7.3700    0.6700 h1        1 1F7      0.023700
     79 H42         5.2660   -7.4820    0.5120 hc        1 1F7      0.095200
     80 H43         4.3880   -9.0400    0.9370 hc        1 1F7      0.095200
     81 H44         6.4580   -6.3600    2.3110 hn        1 1F7      0.410500
     82 H45         7.0600   -8.2660    4.5560 h1        1 1F7      0.034200
     83 H46         6.5980   -6.5350    4.9060 h1        1 1F7      0.034200
     84 H47         8.5440   -5.7810    3.3690 h1        1 1F7      0.152200
     85 H48         9.1110   -7.5240    3.3890 h1        1 1F7      0.152200
@<TRIPOS>BOND
     1    1    2 1   
     2    2    3 1   
     3    2    4 1   
     4    2   38 1   
     5    4   21 1   
     6    5    6 2   
     7    5    7 1   
     8    5   37 1   
     9    7    8 1   
    10    7   39 1   
    11    7   40 1   
    12    8    9 1   
    13    8   10 1   
    14    8   41 1   
    15    9   42 1   
    16   10   11 1   
    17   10   43 1   
    18   10   44 1   
    19   11   12 1   
    20   11   45 1   
    21   11   46 1   
    22   12   13 1   
    23   12   47 1   
    24   12   48 1   
    25   13   14 1   
    26   13   49 1   
    27   13   50 1   
    28   14   15 1   
    29   14   51 1   
    30   14   52 1   
    31   15   16 1   
    32   15   53 1   
    33   15   54 1   
    34   16   17 1   
    35   16   55 1   
    36   16   56 1   
    37   17   18 1   
    38   17   57 1   
    39   17   58 1   
    40   18   19 1   
    41   18   59 1   
    42   18   60 1   
    43   19   20 1   
    44   19   61 1   
    45   19   62 1   
    46   20   63 1   
    47   20   64 1   
    48   20   65 1   
    49   21   22 1   
    50   21   66 1   
    51   21   67 1   
    52   22   23 1   
    53   22   24 1   
    54   22   25 1   
    55   23   68 1   
    56   23   69 1   
    57   23   70 1   
    58   24   71 1   
    59   24   72 1   
    60   24   73 1   
    61   25   26 1   
    62   25   27 1   
    63   25   74 1   
    64   26   75 1   
    65   27   28 2   
    66   27   29 1   
    67   29   30 1   
    68   29   76 1   
    69   30   31 1   
    70   30   77 1   
    71   30   78 1   
    72   31   32 1   
    73   31   79 1   
    74   31   80 1   
    75   32   33 2   
    76   32   34 1   
    77   34   35 1   
    78   34   81 1   
    79   35   36 1   
    80   35   82 1   
    81   35   83 1   
    82   36   37 1   
    83   36   84 1   
    84   36   85 1   
@<TRIPOS>SUBSTRUCTURE
     1 1F7         1 TEMP              0 ****  ****    0 ROOT
