@<TRIPOS>MOLECULE
molecule
   85    84     1     0     0
SMALL
bcc


@<TRIPOS>ATOM
      1 O1P          0.0000     0.0000     0.0000 o          1 1F7      -0.910500
      2 P            1.4790     0.0000     0.0000 p5         1 1F7       1.181900
      3 O2P          2.0160     0.0000     1.5180 o          1 1F7      -0.910500
      4 O3P          2.0170    -1.3140    -0.7580 os         1 1F7      -0.585200
      5 C1          10.6030    -7.3530     7.7580 c          1 1F7       0.571700
      6 O1C         11.1960    -7.1630     6.7170 o          1 1F7      -0.545100
      7 C2          11.3690    -7.6710     9.0160 c3         1 1F7      -0.173400
      8 C3          12.8680    -7.6960     8.7080 c3         1 1F7       0.159100
      9 O3C         13.1520    -8.7700     7.8100 oh         1 1F7      -0.603800
     10 C4          13.6520    -7.8950    10.0060 c3         1 1F7      -0.097400
     11 C5          15.1510    -7.7940     9.7170 c3         1 1F7      -0.081400
     12 C6          15.9350    -7.9930    11.0150 c3         1 1F7      -0.080400
     13 C7          17.4350    -7.8930    10.7260 c3         1 1F7      -0.081400
     14 C8          18.2190    -8.0930    12.0230 c3         1 1F7      -0.081400
     15 C9          19.7180    -7.9920    11.7350 c3         1 1F7      -0.082400
     16 C10         20.5030    -8.1920    13.0330 c3         1 1F7      -0.081400
     17 C11         22.0020    -8.0910    12.7430 c3         1 1F7      -0.082400
     18 C12         22.7860    -8.2900    14.0420 c3         1 1F7      -0.081400
     19 C13         24.2850    -8.1900    13.7530 c3         1 1F7      -0.084400
     20 C14         25.0690    -8.3890    15.0510 c3         1 1F7      -0.092100
     21 C28          1.6270    -2.6390    -0.3910 c3         1 1F7       0.229400
     22 C29          2.3170    -3.6470    -1.3110 c3         1 1F7      -0.074000
     23 C30          1.9050    -3.3790    -2.7600 c3         1 1F7      -0.067100
     24 C31          3.8350    -3.5060    -1.1780 c3         1 1F7      -0.067100
     25 C32          1.9010    -5.0660    -0.9160 c3         1 1F7       0.088100
     26 O33          0.5030    -5.2380    -1.1590 oh         1 1F7      -0.551800
     27 C34          2.1860    -5.2840     0.5470 c          1 1F7       0.648100
     28 O35          1.2740    -5.3090     1.3460 o          1 1F7      -0.576100
     29 N36          3.4550    -5.4520     0.9680 ns         1 1F7      -0.604900
     30 C37          3.7260    -5.7730     2.3720 c3         1 1F7       0.130000
     31 C38          5.2350    -5.9100     2.5830 c3         1 1F7      -0.174400
     32 C39          5.5120    -6.2380     4.0270 c          1 1F7       0.664100
     33 O40          4.5930    -6.3530     4.8110 o          1 1F7      -0.592100
     34 N41          6.7820    -6.4060     4.4480 ns         1 1F7      -0.598900
     35 C42          7.0510    -6.7260     5.8520 c3         1 1F7       0.127000
     36 C43          8.5600    -6.8630     6.0630 c3         1 1F7      -0.010300
     37 S44          8.8940    -7.2580     7.7970 ss         1 1F7      -0.247700
     38 O1           2.0170     1.3140    -0.7590 o          1 1F7      -0.910500
     39 H2          11.1670    -6.9130     9.7630 hc         1 1F7       0.080200
     40 H3          11.0610    -8.6390     9.3920 hc         1 1F7       0.080200
     41 H4          13.1580    -6.7570     8.2510 h1         1 1F7       0.047700
     42 H5          13.6110    -8.4370     7.0560 ho         1 1F7       0.411000
     43 H6          13.3690    -7.1300    10.7190 hc         1 1F7       0.049700
     44 H7          13.4280    -8.8720    10.4170 hc         1 1F7       0.049700
     45 H8          15.4340    -8.5590     9.0030 hc         1 1F7       0.044700
     46 H9          15.3750    -6.8170     9.3060 hc         1 1F7       0.044700
     47 H10         15.7110    -8.9700    11.4260 hc         1 1F7       0.040700
     48 H11         15.6530    -7.2280    11.7280 hc         1 1F7       0.040700
     49 H12         17.6590    -6.9160    10.3150 hc         1 1F7       0.041700
     50 H13         17.7170    -8.6580    10.0120 hc         1 1F7       0.041700
     51 H14         17.9950    -9.0700    12.4340 hc         1 1F7       0.040700
     52 H15         17.9370    -7.3280    12.7370 hc         1 1F7       0.040700
     53 H16         20.0000    -8.7570    11.0210 hc         1 1F7       0.041200
     54 H17         19.9420    -7.0150    11.3250 hc         1 1F7       0.041200
     55 H18         20.2200    -7.4280    13.7470 hc         1 1F7       0.040200
     56 H19         20.2790    -9.1690    13.4430 hc         1 1F7       0.040200
     57 H20         22.2850    -8.8550    12.0300 hc         1 1F7       0.041200
     58 H21         22.2260    -7.1130    12.3330 hc         1 1F7       0.041200
     59 H22         22.5620    -9.2670    14.4530 hc         1 1F7       0.040200
     60 H23         22.5040    -7.5250    14.7550 hc         1 1F7       0.040200
     61 H24         24.5670    -8.9550    13.0390 hc         1 1F7       0.039700
     62 H25         24.5090    -7.2130    13.3420 hc         1 1F7       0.039700
     63 H26         24.8000    -7.6150    15.7590 hc         1 1F7       0.031367
     64 H27         24.8330    -9.3600    15.4700 hc         1 1F7       0.031367
     65 H28         26.1310    -8.3350    14.8440 hc         1 1F7       0.031367
     66 H29          0.5530    -2.7390    -0.4860 h1         1 1F7       0.031200
     67 H30          1.9180    -2.8290     0.6350 h1         1 1F7       0.031200
     68 H31          0.8300    -3.2530    -2.8130 hc         1 1F7       0.028200
     69 H32          2.3920    -2.4780    -3.1130 hc         1 1F7       0.028200
     70 H33          2.2010    -4.2170    -3.3810 hc         1 1F7       0.028200
     71 H34          4.3090    -4.4460    -1.4330 hc         1 1F7       0.028200
     72 H35          4.1850    -2.7320    -1.8500 hc         1 1F7       0.028200
     73 H36          4.0850    -3.2400    -0.1580 hc         1 1F7       0.028200
     74 H37          2.4600    -5.7840    -1.5040 h1         1 1F7       0.006700
     75 H38          0.3530    -6.0840    -1.5480 ho         1 1F7       0.372000
     76 H39          4.2120    -5.3770     0.3180 hn         1 1F7       0.308500
     77 H40          3.3440    -4.9800     3.0030 h1         1 1F7       0.069200
     78 H41          3.2390    -6.7060     2.6300 h1         1 1F7       0.069200
     79 H42          5.7210    -4.9770     2.3250 hc         1 1F7       0.062700
     80 H43          5.6170    -6.7030     1.9520 hc         1 1F7       0.062700
     81 H44          7.5400    -6.3120     3.8020 hn         1 1F7       0.311500
     82 H45          6.6690    -5.9330     6.4840 h1         1 1F7       0.063200
     83 H46          6.5650    -7.6590     6.1100 h1         1 1F7       0.063200
     84 H47          9.0470    -5.9300     5.8060 h1         1 1F7       0.078700
     85 H48          8.9430    -7.6560     5.4320 h1         1 1F7       0.078700
@<TRIPOS>BOND
     1    20    19 1   
     2    13    12 1   
     3    13    14 1   
     4    19    18 1   
     5    15    16 1   
     6    15    14 1   
     7    12    11 1   
     8    18    17 1   
     9    16    17 1   
    10    10    11 1   
    11    10     8 1   
    12     9     8 1   
    13     8     7 1   
    14    24    22 1   
    15    33    32 2   
    16    23    22 1   
    17     7     5 1   
    18    32    31 1   
    19    32    34 1   
    20    28    27 2   
    21    22    21 1   
    22    22    25 1   
    23    35    34 1   
    24    35    36 1   
    25     5     6 2   
    26     5    37 1   
    27    31    30 1   
    28    21     4 1   
    29     4     2 1   
    30    27    25 1   
    31    27    29 1   
    32    37    36 1   
    33    25    26 1   
    34    30    29 1   
    35     1     2 1   
    36     2     3 1   
    37     2    38 1   
    38     7    39 1   
    39     7    40 1   
    40     8    41 1   
    41     9    42 1   
    42    10    43 1   
    43    10    44 1   
    44    11    45 1   
    45    11    46 1   
    46    12    47 1   
    47    12    48 1   
    48    13    49 1   
    49    13    50 1   
    50    14    51 1   
    51    14    52 1   
    52    15    53 1   
    53    15    54 1   
    54    16    55 1   
    55    16    56 1   
    56    17    57 1   
    57    17    58 1   
    58    18    59 1   
    59    18    60 1   
    60    19    61 1   
    61    19    62 1   
    62    20    63 1   
    63    20    64 1   
    64    20    65 1   
    65    21    66 1   
    66    21    67 1   
    67    23    68 1   
    68    23    69 1   
    69    23    70 1   
    70    24    71 1   
    71    24    72 1   
    72    24    73 1   
    73    25    74 1   
    74    26    75 1   
    75    29    76 1   
    76    30    77 1   
    77    30    78 1   
    78    31    79 1   
    79    31    80 1   
    80    34    81 1   
    81    35    82 1   
    82    35    83 1   
    83    36    84 1   
    84    36    85 1   
@<TRIPOS>SUBSTRUCTURE
     1 1F7         1 TEMP              0 ****  ****    0 ROOT
