@<TRIPOS>MOLECULE
1F8
   30    31     1     0     0
SMALL
bcc


@<TRIPOS>ATOM
      1 SD         -0.1300    0.9060    0.7820 sh        1 1F8     -0.252900
      2 C15         1.5870    1.2070    0.5870 c3        1 1F8     -0.063300
      3 C16         2.3640    0.0930    1.2660 c3        1 1F8      0.103800
      4 N17         3.8260    0.3810    1.3680 n4        1 1F8     -0.672800
      5 C18         4.6240   -0.7580    1.9850 c         1 1F8      0.603300
      6 O19         4.0240   -1.8230    2.1080 o         1 1F8     -0.461100
      7 C20         5.9650   -0.4310    2.3490 cc        1 1F8     -0.315400
      8 C21         6.7310    0.7910    2.1280 ca        1 1F8     -0.087800
      9 C22         8.0020    0.5480    2.7350 ca        1 1F8      0.053100
     10 O23         8.0370   -0.7430    3.2950 os        1 1F8     -0.153200
     11 C24         6.8070   -1.3180    3.0460 cd        1 1F8      0.249900
     12 C25         9.0470    1.4600    2.7580 ca        1 1F8     -0.074000
     13 C26         8.8060    2.6850    2.1340 ca        1 1F8     -0.097000
     14 C27         7.5750    2.9540    1.5200 ca        1 1F8     -0.099000
     15 C28         6.5350    2.0220    1.5060 ca        1 1F8     -0.131000
     16 C29         6.6180   -2.6870    3.5320 c3        1 1F8     -0.094900
     17 HSD        -0.3460    0.1200   -0.2600 hs        1 1F8      0.210800
     18 H15         1.7720    2.1940    1.0860 h1        1 1F8      0.096200
     19 H15A        1.8810    1.3050   -0.4870 h1        1 1F8      0.096200
     20 H16         2.2450   -0.8760    0.6980 hx        1 1F8      0.123200
     21 H16A        1.9740   -0.0730    2.3140 hx        1 1F8      0.123200
     22 HN17        4.2090    0.5670    0.4340 hn        1 1F8      0.456300
     23 H25        10.0080    1.2260    3.2400 ha        1 1F8      0.180000
     24 H26         9.5980    3.4510    2.1210 ha        1 1F8      0.168000
     25 H27         7.4250    3.9310    1.0310 ha        1 1F8      0.158000
     26 H28         5.6040    2.2900    0.9930 ha        1 1F8      0.111000
     27 H29         7.1250   -2.8300    4.5220 hc        1 1F8      0.105033
     28 H29A        5.5260   -2.9180    3.6290 hc        1 1F8      0.105033
     29 H29B        7.0750   -3.4080    2.8020 hc        1 1F8      0.105033
     30 H172        3.9730    1.2210    1.9410 hn        1 1F8      0.456300
@<TRIPOS>BOND
     1    1    2 1
     2    1   17 1
     3    2    3 1
     4    2   18 1
     5    2   19 1
     6    3    4 1
     7    3   20 1
     8    3   21 1
     9    4    5 1
    10    4   22 1
    11    4   30 1
    12    5    6 2
    13    5    7 1
    14    7    8 1
    15    7   11 2
    16    8    9 ar
    17    8   15 ar
    18    9   10 1
    19    9   12 ar
    20   10   11 1
    21   11   16 1
    22   12   13 ar
    23   12   23 1
    24   13   14 ar
    25   13   24 1
    26   14   15 ar
    27   14   25 1
    28   15   26 1
    29   16   27 1
    30   16   28 1
    31   16   29 1
@<TRIPOS>SUBSTRUCTURE
     1 1F8         1 TEMP              0 ****  ****    0 ROOT
