@<TRIPOS>MOLECULE
1FA
   68    72     1     0     0
SMALL
bcc


@<TRIPOS>ATOM
      1 F25         -0.5300     0.0710    -0.0280 f          1 1FA      -0.240300
      2 C24          0.7930    -0.2040     0.2260 c3         1 1FA       0.687200
      3 F27          0.8170    -0.4800     1.5730 f          1 1FA      -0.240300
      4 F26          1.4120     1.0180     0.1280 f          1 1FA      -0.240300
      5 C21          1.3930    -1.2960    -0.6480 ca         1 1FA      -0.170300
      6 C22          2.7480    -1.2530    -0.9850 ca         1 1FA      -0.086000
      7 C23          3.2980    -2.2600    -1.7720 ca         1 1FA      -0.114000
      8 C20          0.5850    -2.3440    -1.0950 ca         1 1FA      -0.086000
      9 C19          1.1310    -3.3530    -1.8820 ca         1 1FA      -0.114000
     10 C18          2.4940    -3.3190    -2.2270 ca         1 1FA       0.069000
     11 C17          3.0440    -4.3390    -3.0230 cg         1 1FA      -0.121000
     12 C16          3.5210    -5.2040    -3.7020 ch         1 1FA      -0.157000
     13 C3           4.1000    -6.2190    -4.5070 ca         1 1FA       0.523300
     14 C4           5.4390    -6.0520    -4.9250 ca         1 1FA      -0.222300
     15 N2           3.3410    -7.2980    -4.8340 nb         1 1FA      -0.651000
     16 C1           3.9330    -8.2490    -5.6040 ca         1 1FA       0.525300
     17 C7           3.1790    -9.3970    -5.9630 cg         1 1FA      -0.195000
     18 C8           2.5560   -10.3720    -6.2720 c1         1 1FA      -0.159100
     19 C9           1.7870   -11.5510    -6.5970 c3         1 1FA       0.245900
     20 N10          2.0650   -12.2470    -7.8420 n3         1 1FA      -0.720600
     21 C11          3.3960   -12.8300    -7.9360 c3         1 1FA       0.132800
     22 C12          4.4760   -11.9140    -8.5240 c3         1 1FA       0.092900
     23 O13          4.0520   -11.3320    -9.7530 os         1 1FA      -0.413600
     24 C14          2.8270   -10.6180    -9.6170 c3         1 1FA       0.092900
     25 C15          1.7180   -11.5120    -9.0490 c3         1 1FA       0.132800
     26 C6           5.2640    -8.1580    -6.0650 ca         1 1FA      -0.226300
     27 C5           6.0370    -7.0370    -5.7200 ca         1 1FA       0.015900
     28 S28          7.6140    -7.0000    -6.3050 ss         1 1FA      -0.065800
     29 C29          8.3090    -5.5620    -5.7450 ca         1 1FA      -0.155100
     30 C30          9.1070    -5.5930    -4.5830 ca         1 1FA      -0.042000
     31 C31          9.7960    -4.4800    -4.1340 ca         1 1FA      -0.215000
     32 C34          8.2370    -4.3610    -6.4490 ca         1 1FA       0.001700
     33 C35          7.4850    -4.0660    -7.7080 c3         1 1FA      -0.041100
     34 C36          7.7810    -2.5940    -8.0290 c3         1 1FA      -0.080400
     35 C37          8.7100    -2.0630    -6.9280 c3         1 1FA      -0.016100
     36 C33          8.9260    -3.2170    -6.0110 ca         1 1FA      -0.170300
     37 C32          9.7070    -3.2600    -4.8440 ca         1 1FA       0.222100
     38 O38         10.3140    -2.0960    -4.4830 os         1 1FA      -0.310900
     39 C39         10.9720    -2.0440    -3.2060 c3         1 1FA      -0.006600
     40 C40         12.3190    -2.8070    -3.1510 c          1 1FA       0.896600
     41 O42         13.3170    -2.2800    -3.7020 o          1 1FA      -0.819300
     42 O41         12.3290    -3.8910    -2.5010 o          1 1FA      -0.819300
     43 H22          3.3770    -0.4200    -0.6310 ha         1 1FA       0.151000
     44 H23          4.3660    -2.2290    -2.0390 ha         1 1FA       0.155000
     45 H20         -0.4830    -2.3660    -0.8270 ha         1 1FA       0.151000
     46 H19          0.4990    -4.1810    -2.2360 ha         1 1FA       0.155000
     47 H4           6.0070    -5.1570    -4.6260 ha         1 1FA       0.171000
     48 H91          1.9300   -12.3020    -5.7610 h1         1 1FA       0.070700
     49 H92          0.6930   -11.2630    -6.6130 h1         1 1FA       0.070700
     50 H111         3.7300   -13.1770    -6.9200 h1         1 1FA       0.058700
     51 H112         3.2930   -13.7330    -8.6030 h1         1 1FA       0.058700
     52 H121         4.7450   -11.0990    -7.7980 h1         1 1FA       0.056200
     53 H122         5.3880   -12.5050    -8.7960 h1         1 1FA       0.056200
     54 H141         2.9880    -9.7200    -8.9640 h1         1 1FA       0.056200
     55 H142         2.5770   -10.2960   -10.6620 h1         1 1FA       0.056200
     56 H151         0.8080   -10.8810    -8.8610 h1         1 1FA       0.058700
     57 H152         1.4570   -12.2900    -9.8220 h1         1 1FA       0.058700
     58 H6           5.6880    -8.9600    -6.6870 ha         1 1FA       0.153000
     59 H30          9.1930    -6.5380    -4.0220 ha         1 1FA       0.136000
     60 H31         10.4620    -4.5450    -3.2480 ha         1 1FA       0.217000
     61 H351         6.3880    -4.2320    -7.5620 hc         1 1FA       0.053200
     62 H352         7.8260    -4.7360    -8.5370 hc         1 1FA       0.053200
     63 H361         8.2710    -2.5060    -9.0290 hc         1 1FA       0.035700
     64 H362         6.8330    -2.0040    -8.0600 hc         1 1FA       0.035700
     65 H371         9.6850    -1.7090    -7.3500 hc         1 1FA       0.055200
     66 H372         8.2470    -1.2030    -6.3820 hc         1 1FA       0.055200
     67 H391        10.2730    -2.4100    -2.4120 h1         1 1FA       0.041200
     68 H392        11.1590    -0.9420    -3.0950 h1         1 1FA       0.041200
@<TRIPOS>BOND
     1     1     2 1   
     2     2     3 1   
     3     2     4 1   
     4     2     5 1   
     5     5     6 ar  
     6     5     8 ar  
     7     6     7 ar  
     8     6    43 1   
     9     7    10 ar  
    10     7    44 1   
    11     8     9 ar  
    12     8    45 1   
    13     9    10 ar  
    14     9    46 1   
    15    10    11 1   
    16    11    12 3   
    17    12    13 1   
    18    13    14 ar  
    19    13    15 ar  
    20    14    27 ar  
    21    14    47 1   
    22    15    16 ar  
    23    16    17 1   
    24    16    26 ar  
    25    17    18 3   
    26    18    19 1   
    27    19    20 1   
    28    19    48 1   
    29    19    49 1   
    30    20    21 1   
    31    20    25 1   
    32    21    22 1   
    33    21    50 1   
    34    21    51 1   
    35    22    23 1   
    36    22    52 1   
    37    22    53 1   
    38    23    24 1   
    39    24    25 1   
    40    24    54 1   
    41    24    55 1   
    42    25    56 1   
    43    25    57 1   
    44    26    27 ar  
    45    26    58 1   
    46    27    28 1   
    47    28    29 1   
    48    29    30 ar  
    49    29    32 ar  
    50    30    31 ar  
    51    30    59 1   
    52    31    37 ar  
    53    31    60 1   
    54    32    33 1   
    55    32    36 ar  
    56    33    34 1   
    57    33    61 1   
    58    33    62 1   
    59    34    35 1   
    60    34    63 1   
    61    34    64 1   
    62    35    36 1   
    63    35    65 1   
    64    35    66 1   
    65    36    37 ar  
    66    37    38 1   
    67    38    39 1   
    68    39    40 1   
    69    39    67 1   
    70    39    68 1   
    71    40    41 1   
    72    40    42 1   
@<TRIPOS>SUBSTRUCTURE
     1 1FA         1 TEMP              0 ****  ****    0 ROOT
