@<TRIPOS>MOLECULE
molecule
   68    72     1     0     0
SMALL
bcc


@<TRIPOS>ATOM
      1 F25          0.0000     0.0000     0.0000 f          1 1FA      -0.226300
      2 C24          1.3990     0.0000     0.0000 c3         1 1FA       0.673200
      3 F27          1.8640     0.0000     1.3200 f          1 1FA      -0.226300
      4 F26          1.8660    -1.1420    -0.6580 f          1 1FA      -0.226300
      5 C21          1.9030     1.2310    -0.7090 ca         1 1FA      -0.182300
      6 C22          2.1310     2.3930     0.0050 ca         1 1FA      -0.085500
      7 C23          2.5920     3.5230    -0.6370 ca         1 1FA      -0.112500
      8 C20          2.1380     1.1910    -2.0720 ca         1 1FA      -0.085500
      9 C19          2.5990     2.3120    -2.7290 ca         1 1FA      -0.112500
     10 C18          2.8280     3.4920    -2.0140 ca         1 1FA       0.067000
     11 C17          3.3050     4.6610    -2.6890 cg         1 1FA      -0.105000
     12 C16          3.7100     5.6080    -3.2520 ch         1 1FA      -0.191000
     13 C3           4.0230     6.8980    -4.0000 ca         1 1FA       0.610300
     14 C4           2.5450     7.8180    -4.4080 ca         1 1FA      -0.209300
     15 N2           4.9800     7.2510    -4.2690 nb         1 1FA      -0.607000
     16 C1           5.0280     8.4800    -4.9640 ca         1 1FA       0.498300
     17 C7           6.6710     9.1290    -5.5580 cg         1 1FA      -0.207000
     18 C8           7.5790     9.4460    -5.6890 c1         1 1FA      -0.121100
     19 C9           9.0630     9.7490    -6.3770 c3         1 1FA       0.188900
     20 N10          9.6560    10.4680    -5.3350 n3         1 1FA      -0.644600
     21 C11          9.7740     9.6180    -4.1910 c3         1 1FA       0.072300
     22 C12         10.9780     8.5510    -4.5570 c3         1 1FA       0.138400
     23 O13         12.0770     9.0500    -5.1660 os         1 1FA      -0.372600
     24 C14         11.9620     9.9240    -5.9870 c3         1 1FA       0.138400
     25 C15         11.1960    10.9120    -5.7760 c3         1 1FA       0.072300
     26 C6           4.1240     9.2960    -5.3570 ca         1 1FA      -0.125300
     27 C5           2.9470     8.8210    -5.0020 ca         1 1FA       0.007900
     28 S28          1.5760     9.8360    -5.4140 ss         1 1FA      -0.433800
     29 C29          0.4640     8.5730    -6.4450 ca         1 1FA       0.121900
     30 C30          0.7940     7.3060    -6.6880 ca         1 1FA      -0.203000
     31 C31         -0.0360     6.4370    -7.4330 ca         1 1FA       0.055000
     32 C34         -0.8940     9.3190    -6.9400 ca         1 1FA      -0.108300
     33 C35         -1.4590    10.6440    -6.8060 c3         1 1FA       0.001900
     34 C36         -3.0560    10.3600    -6.9310 c3         1 1FA      -0.172400
     35 C37         -1.9090     9.4580    -8.9680 c3         1 1FA      -0.045100
     36 C33         -1.1960     8.4160    -8.2150 ca         1 1FA      -0.103300
     37 C32         -0.7570     7.2950    -8.4970 ca         1 1FA       0.116100
     38 O38         -1.5670     6.6230    -9.4510 os         1 1FA      -0.349900
     39 C39         -0.7180     5.4110    -9.6780 c3         1 1FA      -0.181600
     40 C40          0.8200     5.7090    -9.9590 c          1 1FA       1.051600
     41 O42          1.1460     5.8660   -10.9740 o          1 1FA      -0.781300
     42 O41          1.4320     5.4740    -9.1130 o          1 1FA      -0.781300
     43 H22          2.0590     2.3870     1.0860 ha         1 1FA       0.147000
     44 H23          2.7670     4.4320    -0.0740 ha         1 1FA       0.152000
     45 H20          2.0770     0.2490    -2.6050 ha         1 1FA       0.147000
     46 H19          2.7860     2.2770    -3.7950 ha         1 1FA       0.152000
     47 H4           1.8420     8.0870    -3.6290 ha         1 1FA       0.185000
     48 H91          9.4120     8.8990    -6.9510 h1         1 1FA       0.068200
     49 H92          9.0430    10.6520    -6.9740 h1         1 1FA       0.068200
     50 H111         8.8450     9.0880    -4.0220 h1         1 1FA       0.069200
     51 H112        10.0440    10.2010    -3.3190 h1         1 1FA       0.069200
     52 H121        10.5600     7.7870    -5.2010 h1         1 1FA       0.024700
     53 H122        11.2960     8.0820    -3.6340 h1         1 1FA       0.024700
     54 H141        11.6290     9.4550    -6.9050 h1         1 1FA       0.024700
     55 H142        12.9530    10.3240    -6.1630 h1         1 1FA       0.024700
     56 H151        11.6210    11.5170    -4.9850 h1         1 1FA       0.069200
     57 H152        11.1390    11.5050    -6.6810 h1         1 1FA       0.069200
     58 H6           4.2930    10.2030    -5.9250 ha         1 1FA       0.193000
     59 H30          1.8230     6.9980    -6.5440 ha         1 1FA       0.160000
     60 H31         -0.5660     5.6340    -6.9340 ha         1 1FA       0.165000
     61 H351        -1.1200    11.2870    -7.6100 hc         1 1FA       0.043700
     62 H352        -1.2200    11.0660    -5.8380 hc         1 1FA       0.043700
     63 H361        -3.5000    10.1860    -5.9580 hc         1 1FA       0.039200
     64 H362        -3.5440    11.1230    -7.5260 hc         1 1FA       0.039200
     65 H371        -2.4790     8.6030    -9.3130 hc         1 1FA       0.089200
     66 H372        -1.8970    10.2450    -9.7120 hc         1 1FA       0.089200
     67 H391        -0.7880     4.7770    -8.8030 h1         1 1FA       0.016200
     68 H392        -1.1200     4.8690   -10.5260 h1         1 1FA       0.016200
@<TRIPOS>BOND
     1     1     2 1
     2     2     5 1
     3     2     4 1
     4     2     3 1
     5     5     6 ar
     6     5     8 ar
     7     6     7 ar
     8     6    43 1
     9     7    10 ar
    10     7    44 1
    11     8     9 ar
    12     8    45 1
    13     9    10 ar
    14     9    46 1
    15    10    11 1
    16    11    12 3
    17    12    13 1
    18    13    15 ar
    19    13    14 ar
    20    14    27 ar
    21    14    47 1
    22    15    16 ar
    23    16    26 ar
    24    16    17 1
    25    17    18 3
    26    18    19 1
    27    19    20 1
    28    19    48 1
    29    19    49 1
    30    20    25 1
    31    20    21 1
    32    21    22 1
    33    21    50 1
    34    21    51 1
    35    22    23 1
    36    22    52 1
    37    22    53 1
    38    23    24 1
    39    24    25 1
    40    24    54 1
    41    24    55 1
    42    25    56 1
    43    25    57 1
    44    26    27 ar
    45    26    58 1
    46    27    28 1
    47    28    29 1
    48    29    30 ar
    49    29    32 ar
    50    30    31 ar
    51    30    59 1
    52    31    37 ar
    53    31    60 1
    54    32    33 1
    55    32    36 ar
    56    33    34 1
    57    33    61 1
    58    33    62 1
    59    34    35 1
    60    34    63 1
    61    34    64 1
    62    35    36 1
    63    35    65 1
    64    35    66 1
    65    36    37 ar
    66    37    38 1
    67    38    39 1
    68    39    40 1
    69    39    67 1
    70    39    68 1
    71    40    41 1
    72    40    42 1
@<TRIPOS>SUBSTRUCTURE
     1 1FA         1 TEMP              0 ****  ****    0 ROOT
