@<TRIPOS>MOLECULE
1FB
   38    40     1     0     0
SMALL
bcc


@<TRIPOS>ATOM
      1 CAA          0.0000     0.0000     0.0000 c3         1 1FB      -0.012433
      2 CAV          1.5300     0.0000     0.0000 c3         1 1FB      -0.044300
      3 CAB          2.0400     0.0000     1.4430 c3         1 1FB      -0.012433
      4 CAC          2.0410    -1.2490    -0.7200 c3         1 1FB      -0.012433
      5 NAU          2.0190     1.1960    -0.6900 na         1 1FB       0.388200
      6 NAM          2.8260     2.1860    -0.1210 nc         1 1FB      -0.700100
      7 C4           1.7630     1.5150    -1.9890 ca         1 1FB       0.372800
      8 N3           1.0710     0.9420    -2.9740 nb         1 1FB      -0.705000
      9 C2           1.0020     1.5050    -4.1610 ca         1 1FB       0.721900
     10 N1           1.6000     2.6490    -4.4450 nb         1 1FB      -0.754000
     11 C6           2.3140     3.2970    -3.5290 ca         1 1FB       0.622200
     12 NAD          2.9360     4.4920    -3.8320 nv         1 1FB      -0.508500
     13 C5           2.4170     2.7360    -2.2440 ca         1 1FB      -0.564500
     14 CAR          3.0840     3.1150    -1.0030 cd         1 1FB       0.650200
     15 OAN          3.8370     4.2290    -0.8030 os         1 1FB      -0.264700
     16 CAQ          4.3190     4.4550     0.4470 ca         1 1FB       0.128100
     17 CAJ          5.2000     5.5020     0.6720 ca         1 1FB      -0.132000
     18 CAO          5.6890     5.7310     1.9450 ca         1 1FB      -0.007600
     19 Cl1          6.7910     7.0430     2.2280 cl         1 1FB      -0.028400
     20 CAG          5.3000     4.9170     2.9930 ca         1 1FB      -0.129000
     21 CAF          4.4220     3.8710     2.7700 ca         1 1FB      -0.052000
     22 CAH          3.9260     3.6430     1.5020 ca         1 1FB      -0.229000
     23 H1          -0.3610    -0.6100     0.8200 hc         1 1FB       0.019811
     24 H2          -0.3610    -0.4050    -0.9380 hc         1 1FB       0.019811
     25 H3          -0.3610     1.0140     0.1180 hc         1 1FB       0.019811
     26 H4           1.7200    -0.9080     1.9390 hc         1 1FB       0.019811
     27 H5           1.6390     0.8590     1.9680 hc         1 1FB       0.019811
     28 H6           3.1220     0.0490     1.4440 hc         1 1FB       0.019811
     29 H7           3.0530    -1.0780    -1.0660 hc         1 1FB       0.019811
     30 H8           2.0300    -2.0900    -0.0360 hc         1 1FB       0.019811
     31 H9           1.4010    -1.4650    -1.5670 hc         1 1FB       0.019811
     32 H10          0.4300     1.0110    -4.9380 h5         1 1FB      -0.004900
     33 H11          2.5440     5.0970    -4.5260 hn         1 1FB       0.278300
     34 H12          3.8180     4.7150    -3.4150 hn         1 1FB       0.278300
     35 H13          5.5100     6.1360    -0.1510 ha         1 1FB       0.122000
     36 H14          5.6860     5.0960     3.9900 ha         1 1FB       0.115000
     37 H15          4.1170     3.2360     3.5930 ha         1 1FB       0.104000
     38 H16          3.2390     2.8240     1.3280 ha         1 1FB       0.203000
@<TRIPOS>BOND
     1     1     2 1   
     2     1    23 1   
     3     1    24 1   
     4     1    25 1   
     5     2     3 1   
     6     2     4 1   
     7     2     5 1   
     8     3    26 1   
     9     3    27 1   
    10     3    28 1   
    11     4    29 1   
    12     4    30 1   
    13     4    31 1   
    14     5     6 1   
    15     5     7 1   
    16     6    14 2   
    17     7     8 ar  
    18     7    13 ar  
    19     8     9 ar  
    20     9    10 ar  
    21     9    32 1   
    22    10    11 ar  
    23    11    12 1   
    24    11    13 ar  
    25    12    33 1   
    26    12    34 1   
    27    13    14 1   
    28    14    15 1   
    29    15    16 1   
    30    16    17 ar  
    31    16    22 ar  
    32    17    18 ar  
    33    17    35 1   
    34    18    19 1   
    35    18    20 ar  
    36    20    21 ar  
    37    20    36 1   
    38    21    22 ar  
    39    21    37 1   
    40    22    38 1   
@<TRIPOS>SUBSTRUCTURE
     1 1FB         1 TEMP              0 ****  ****    0 ROOT
