@<TRIPOS>MOLECULE
1FB
   38    40     1     0     0
SMALL
bcc


@<TRIPOS>ATOM
      1 CAA         -0.0700    -0.5630    -0.3610 c3         1 1FB      -0.105433
      2 CAV          1.4230    -0.4970     0.0070 c3         1 1FB       0.101700
      3 CAB          1.5290    -0.6000     1.5370 c3         1 1FB      -0.105433
      4 CAC          1.9490     0.8790    -0.4310 c3         1 1FB      -0.105433
      5 NAU          2.1980    -1.5820    -0.6400 na         1 1FB       0.001200
      6 NAM          1.6470    -2.4710    -1.5020 nc         1 1FB      -0.559100
      7 C4           3.5840    -1.7840    -0.5100 ca         1 1FB       0.499800
      8 N3           4.5320    -1.1290     0.2330 nb         1 1FB      -0.752000
      9 C2           5.7710    -1.6480     0.0890 ca         1 1FB       0.702900
     10 N1           6.2110    -2.6940    -0.6630 nb         1 1FB      -0.807000
     11 C6           5.2670    -3.3610    -1.4130 ca         1 1FB       0.781200
     12 NAD          5.6070    -4.4300    -2.1950 nv         1 1FB      -0.962500
     13 C5           3.9110    -2.9220    -1.3590 ca         1 1FB      -0.520500
     14 CAR          2.6410    -3.2880    -1.9410 cd         1 1FB       0.569200
     15 OAN          2.5630    -4.3200    -2.8490 os         1 1FB      -0.319700
     16 CAQ          1.2800    -4.7340    -3.2240 ca         1 1FB       0.104100
     17 CAJ          1.0310    -4.7990    -4.6010 ca         1 1FB      -0.126000
     18 CAO         -0.1880    -5.3340    -5.0260 ca         1 1FB       0.027400
     19 Cl1         -0.5170    -5.4380    -6.6900 cl         1 1FB      -0.087400
     20 CAG         -1.1400    -5.7770    -4.1010 ca         1 1FB      -0.130000
     21 CAF         -0.8700    -5.6900    -2.7360 ca         1 1FB      -0.108000
     22 CAH          0.3420    -5.1700    -2.2820 ca         1 1FB      -0.131000
     23 H1          -0.5200    -1.5310    -0.0360 hc         1 1FB       0.051589
     24 H2          -0.2180    -0.4440    -1.4600 hc         1 1FB       0.051589
     25 H3          -0.5970     0.2700     0.1630 hc         1 1FB       0.051589
     26 H4           1.1550    -1.5880     1.8950 hc         1 1FB       0.051589
     27 H5           0.9000     0.2050     1.9890 hc         1 1FB       0.051589
     28 H6           2.5800    -0.4610     1.8830 hc         1 1FB       0.051589
     29 H7           3.0080     1.0290    -0.1160 hc         1 1FB       0.051589
     30 H8           1.8790     0.9960    -1.5390 hc         1 1FB       0.051589
     31 H9           1.3220     1.6670     0.0510 hc         1 1FB       0.051589
     32 H10          6.5670    -1.1400     0.6770 h5         1 1FB       0.051100
     33 H11          4.9000    -4.8670    -2.7340 hn         1 1FB       0.451300
     34 H12          6.5440    -4.7390    -2.2570 hn         1 1FB       0.451300
     35 H13          1.7850    -4.4430    -5.3170 ha         1 1FB       0.163000
     36 H14         -2.0990    -6.1910    -4.4490 ha         1 1FB       0.150000
     37 H15         -1.6200    -6.0360    -2.0090 ha         1 1FB       0.143000
     38 H16          0.5580    -5.0930    -1.2070 ha         1 1FB       0.156000
@<TRIPOS>BOND
     1     1     2 1   
     2     1    23 1   
     3     1    24 1   
     4     1    25 1   
     5     2     3 1   
     6     2     4 1   
     7     2     5 1   
     8     3    26 1   
     9     3    27 1   
    10     3    28 1   
    11     4    29 1   
    12     4    30 1   
    13     4    31 1   
    14     5     6 1   
    15     5     7 1   
    16     6    14 2   
    17     7     8 ar  
    18     7    13 ar  
    19     8     9 ar  
    20     9    10 ar  
    21     9    32 1   
    22    10    11 ar  
    23    11    12 1   
    24    11    13 ar  
    25    12    33 1   
    26    12    34 1   
    27    13    14 1   
    28    14    15 1   
    29    15    16 1   
    30    16    17 ar  
    31    16    22 ar  
    32    17    18 ar  
    33    17    35 1   
    34    18    19 1   
    35    18    20 ar  
    36    20    21 ar  
    37    20    36 1   
    38    21    22 ar  
    39    21    37 1   
    40    22    38 1   
@<TRIPOS>SUBSTRUCTURE
     1 1FB         1 TEMP              0 ****  ****    0 ROOT
