@<TRIPOS>MOLECULE
1FD
   22    22     1     0     0
SMALL
bcc


@<TRIPOS>ATOM
      1 F3           0.9300    -0.9460    -0.7260 f          1 1FD      -0.195967
      2 C1           1.8160    -0.0300    -0.2670 c3         1 1FD       0.831700
      3 F1           2.2520    -0.3770     0.9630 f          1 1FD      -0.195967
      4 F2           2.8570     0.0660    -1.1270 f          1 1FD      -0.195967
      5 O            1.1940     1.2230    -0.0660 os         1 1FD      -0.361900
      6 C2           0.6340     1.9150    -1.1170 ca         1 1FD       0.194100
      7 C7           0.0950     3.1670    -0.7520 ca         1 1FD      -0.156000
      8 C6          -0.5040     3.9510    -1.7270 ca         1 1FD      -0.061000
      9 C5          -0.5750     3.5030    -3.0560 ca         1 1FD      -0.233300
     10 C8          -1.1800     4.3710    -4.0980 c3         1 1FD       0.181100
     11 N           -2.6590     4.1250    -4.2110 nz         1 1FD      -0.846600
     12 C4          -0.0280     2.2630    -3.4060 ca         1 1FD      -0.061000
     13 C3           0.5770     1.4620    -2.4420 ca         1 1FD      -0.156000
     14 H1           0.1660     3.5040     0.2950 ha         1 1FD       0.181000
     15 H2          -0.9080     4.9380    -1.4500 ha         1 1FD       0.146500
     16 H3          -1.0400     5.4630    -3.8470 hx         1 1FD       0.113700
     17 H4          -0.7270     4.1670    -5.1110 hx         1 1FD       0.113700
     18 H5          -3.1130     4.3110    -3.3110 hn         1 1FD       0.457800
     19 H6          -3.0680     4.7310    -4.9270 hn         1 1FD       0.457800
     20 H8          -0.0570     1.9150    -4.4510 ha         1 1FD       0.146500
     21 H9           1.0110     0.4880    -2.7240 ha         1 1FD       0.181000
     22 HN3         -2.8310     3.1450    -4.4590 hn         1 1FD       0.457800
@<TRIPOS>BOND
     1     1     2 1   
     2     2     3 1   
     3     2     4 1   
     4     2     5 1   
     5     5     6 1   
     6     6     7 ar  
     7     6    13 ar  
     8     7     8 ar  
     9     7    14 1   
    10     8     9 ar  
    11     8    15 1   
    12     9    10 1   
    13     9    12 ar  
    14    10    11 1   
    15    10    16 1   
    16    10    17 1   
    17    11    18 1   
    18    11    19 1   
    19    11    22 1   
    20    12    13 ar  
    21    12    20 1   
    22    13    21 1   
@<TRIPOS>SUBSTRUCTURE
     1 1FD         1 TEMP              0 ****  ****    0 ROOT
