@<TRIPOS>MOLECULE
1FD
   22    22     1     0     0
SMALL
bcc


@<TRIPOS>ATOM
      1 F3           0.0000     0.0000     0.0000 f          1 1FD      -0.186300
      2 C1           1.3990     0.0000     0.0000 c3         1 1FD       0.761700
      3 F1           1.8650     0.0000     1.3190 f          1 1FD      -0.186300
      4 F2           1.8650    -1.1420    -0.6600 f          1 1FD      -0.186300
      5 O            1.8740     1.1670    -0.6720 os         1 1FD      -0.305900
      6 C2           1.5080     2.3710    -0.1550 ca         1 1FD       0.209100
      7 C7           0.7140     2.4260     0.9800 ca         1 1FD      -0.145000
      8 C6           0.3430     3.6480     1.5040 ca         1 1FD      -0.020000
      9 C5           0.7650     4.8180     0.8980 ca         1 1FD      -0.250300
     10 C8           0.3590     6.1510     1.4710 c3         1 1FD       0.046100
     11 N            1.3620     6.5880     2.4520 nz         1 1FD       0.071400
     12 C4           1.5580     4.7650    -0.2330 ca         1 1FD      -0.020000
     13 C3           1.9360     3.5450    -0.7590 ca         1 1FD      -0.145000
     14 H1           0.3570     1.5100     1.4360 ha         1 1FD       0.149000
     15 H2          -0.2970     3.6920     2.3770 ha         1 1FD       0.112000
     16 H3           0.2930     6.8820     0.6740 hx         1 1FD       0.081700
     17 H4          -0.6040     6.0580     1.9570 hx         1 1FD       0.081700
     18 H5           1.0920     7.4730     2.8340 hn         1 1FD       0.223467
     19 H6           2.2520     6.6760     2.0030 hn         1 1FD       0.223467
     20 H8           1.8740     5.6830    -0.7150 ha         1 1FD       0.112000
     21 H9           2.5100     3.5040    -1.6760 ha         1 1FD       0.149000
     22 HN3          1.4370     5.9040     3.1790 hn         1 1FD       0.223467
@<TRIPOS>BOND
     1     1     2 1   
     2     2     3 1   
     3     2     4 1   
     4     2     5 1   
     5     5     6 1   
     6     6     7 ar  
     7     6    13 ar  
     8     7     8 ar  
     9     7    14 1   
    10     8     9 ar  
    11     8    15 1   
    12     9    10 1   
    13     9    12 ar  
    14    10    11 1   
    15    10    16 1   
    16    10    17 1   
    17    11    18 1   
    18    11    19 1   
    19    11    22 1   
    20    12    13 ar  
    21    12    20 1   
    22    13    21 1   
@<TRIPOS>SUBSTRUCTURE
     1 1FD         1 TEMP              0 ****  ****    0 ROOT
