@<TRIPOS>MOLECULE
1FE
   26    27     1     0     0
SMALL
bcc


@<TRIPOS>ATOM
      1 O2           0.0000     0.0000     0.0000 o          1 1FE      -0.678500
      2 C6           1.2170     0.0000     0.0000 c          1 1FE       0.555500
      3 N2           1.9920     0.0000     1.1010 ns         1 1FE       0.032900
      4 N3           1.9930    -0.0060    -1.1010 ns         1 1FE       0.026900
      5 C7           3.3260    -0.0050    -0.6980 ca         1 1FE      -0.148400
      6 C5           3.3270    -0.0020     0.6970 ca         1 1FE      -0.141400
      7 C4           4.5290    -0.0000     1.3890 ca         1 1FE      -0.058000
      8 C3           5.7220    -0.0020     0.6970 ca         1 1FE      -0.100000
      9 C8           4.5270    -0.0100    -1.3910 ca         1 1FE      -0.067000
     10 C2           5.7250    -0.0070    -0.6930 ca         1 1FE      -0.167400
     11 N1           6.9400    -0.0110    -1.3900 ns         1 1FE       0.084900
     12 C1           7.0490    -0.6890    -2.5500 c          1 1FE       0.519100
     13 O1           6.0740    -1.2260    -3.0320 o          1 1FE      -0.647100
     14 C9           8.3830    -0.7810    -3.2460 c3         1 1FE      -0.133200
     15 N4           8.2380    -1.5670    -4.4790 nz         1 1FE       0.115400
     16 H1           1.6660     0.0010     2.0470 hn         1 1FE       0.202500
     17 H2           1.6660    -0.0110    -2.0470 hn         1 1FE       0.197500
     18 H3           4.5310     0.0030     2.4730 ha         1 1FE       0.121000
     19 H4           6.6600     0.0010     1.2390 ha         1 1FE       0.111000
     20 H5           4.5290    -0.0140    -2.4740 ha         1 1FE       0.136000
     21 H6           7.7310     0.4780    -1.0200 hn         1 1FE       0.168500
     22 H7           9.0990    -1.2640    -2.5930 hx         1 1FE       0.091700
     23 H8           8.7320     0.2150    -3.4920 hx         1 1FE       0.091700
     24 H9           7.8640    -2.4680    -4.2580 hn         1 1FE       0.228467
     25 H10          7.6180    -1.0930    -5.1060 hn         1 1FE       0.228467
     26 H43          9.1330    -1.6740    -4.9130 hn         1 1FE       0.228467
@<TRIPOS>BOND
     1     1     2 2   
     2     2     3 1   
     3     2     4 1   
     4     3     6 1   
     5     3    16 1   
     6     4     5 1   
     7     4    17 1   
     8     5     6 ar  
     9     5     9 ar  
    10     6     7 ar  
    11     7     8 ar  
    12     7    18 1   
    13     8    10 ar  
    14     8    19 1   
    15     9    10 ar  
    16     9    20 1   
    17    10    11 1   
    18    11    12 1   
    19    11    21 1   
    20    12    13 2   
    21    12    14 1   
    22    14    15 1   
    23    14    22 1   
    24    14    23 1   
    25    15    24 1   
    26    15    25 1   
    27    15    26 1   
@<TRIPOS>SUBSTRUCTURE
     1 1FE         1 TEMP              0 ****  ****    0 ROOT
