@<TRIPOS>MOLECULE
1FE
   26    27     1     0     0
SMALL
bcc


@<TRIPOS>ATOM
      1 O2           0.2200     0.0570     0.0830 o          1 1FE      -0.589500
      2 C6           1.4560     0.0230     0.0180 c          1 1FE       0.797500
      3 N2           2.3580     0.0140     1.1230 ns         1 1FE      -0.455100
      4 N3           2.2340    -0.0550    -1.1780 ns         1 1FE      -0.452100
      5 C7           3.5910    -0.0260    -0.8240 ca         1 1FE       0.023600
      6 C5           3.6670     0.0030     0.6290 ca         1 1FE       0.026600
      7 C4           4.9030     0.0080     1.2620 ca         1 1FE      -0.113000
      8 C3           6.0540    -0.0150     0.4740 ca         1 1FE      -0.144000
      9 C8           4.7380    -0.0530    -1.6030 ca         1 1FE      -0.133000
     10 C2           5.9840    -0.0480    -0.9350 ca         1 1FE       0.006600
     11 N1           7.2080    -0.1060    -1.6550 ns         1 1FE      -0.408100
     12 C1           7.3840     0.2620    -2.9520 c          1 1FE       0.648100
     13 O1           6.5010     0.6310    -3.7550 o          1 1FE      -0.601100
     14 C9           8.8450     0.2030    -3.4800 c3         1 1FE      -0.000200
     15 N4           8.8700     0.3480    -4.9600 nz         1 1FE      -0.828600
     16 H1           2.0840     0.1080     2.0660 hn         1 1FE       0.369500
     17 H2           1.8680     0.1190    -2.0770 hn         1 1FE       0.362500
     18 H3           4.9860     0.0290     2.3590 ha         1 1FE       0.162000
     19 H4           7.0290    -0.0120     0.9870 ha         1 1FE       0.140000
     20 H5           4.6690    -0.0720    -2.7010 ha         1 1FE       0.171000
     21 H6           8.0110    -0.3410    -1.1100 hn         1 1FE       0.334500
     22 H7           9.4230     1.0590    -3.0240 hx         1 1FE       0.128200
     23 H8           9.3390    -0.7720    -3.2040 hx         1 1FE       0.128200
     24 H9           9.7610     0.7450    -5.2680 hn         1 1FE       0.475133
     25 H10          8.7270    -0.5630    -5.4080 hn         1 1FE       0.475133
     26 H43          8.0880     0.9680    -5.2470 hn         1 1FE       0.475133
@<TRIPOS>BOND
     1     1     2 2   
     2     2     3 1   
     3     2     4 1   
     4     3     6 1   
     5     3    16 1   
     6     4     5 1   
     7     4    17 1   
     8     5     6 ar  
     9     5     9 ar  
    10     6     7 ar  
    11     7     8 ar  
    12     7    18 1   
    13     8    10 ar  
    14     8    19 1   
    15     9    10 ar  
    16     9    20 1   
    17    10    11 1   
    18    11    12 1   
    19    11    21 1   
    20    12    13 2   
    21    12    14 1   
    22    14    15 1   
    23    14    22 1   
    24    14    23 1   
    25    15    24 1   
    26    15    25 1   
    27    15    26 1   
@<TRIPOS>SUBSTRUCTURE
     1 1FE         1 TEMP              0 ****  ****    0 ROOT
