@<TRIPOS>MOLECULE
molecule
   26    27     1     0     0
SMALL
bcc


@<TRIPOS>ATOM
      1 O2           0.0000     0.0000     0.0000 o          1 1FE      -0.625500
      2 C6           1.2170     0.0000     0.0000 c          1 1FE       0.801500
      3 N2           1.9920     0.0000     1.1010 ns         1 1FE      -0.442100
      4 N3           1.9930    -0.0060    -1.1010 ns         1 1FE      -0.445100
      5 C7           3.3260    -0.0050    -0.6980 ca         1 1FE       0.013600
      6 C5           3.3270    -0.0020     0.6970 ca         1 1FE       0.011600
      7 C4           4.5290    -0.0000     1.3890 ca         1 1FE      -0.102000
      8 C3           5.7220    -0.0020     0.6970 ca         1 1FE      -0.134000
      9 C8           4.5270    -0.0100    -1.3910 ca         1 1FE      -0.119000
     10 C2           5.7250    -0.0070    -0.6930 ca         1 1FE       0.007600
     11 N1           6.9400    -0.0110    -1.3900 ns         1 1FE      -0.421100
     12 C1           7.0490    -0.6890    -2.5500 c          1 1FE       0.632100
     13 O1           6.0740    -1.2260    -3.0320 o          1 1FE      -0.590100
     14 C9           8.3830    -0.7810    -3.2460 c3         1 1FE       0.011800
     15 N4           8.2380    -1.5670    -4.4790 nz         1 1FE      -0.793600
     16 H1           1.6660     0.0010     2.0470 hn         1 1FE       0.373500
     17 H2           1.6660    -0.0110    -2.0470 hn         1 1FE       0.369500
     18 H3           4.5310     0.0030     2.4730 ha         1 1FE       0.156000
     19 H4           6.6600     0.0010     1.2390 ha         1 1FE       0.142000
     20 H5           4.5290    -0.0140    -2.4740 ha         1 1FE       0.158000
     21 H6           7.7310     0.4780    -1.0200 hn         1 1FE       0.338500
     22 H7           9.0990    -1.2640    -2.5930 hx         1 1FE       0.126700
     23 H8           8.7320     0.2150    -3.4920 hx         1 1FE       0.126700
     24 H9           7.8640    -2.4680    -4.2580 hn         1 1FE       0.468133
     25 H10          7.6180    -1.0930    -5.1060 hn         1 1FE       0.468133
     26 H43          9.1330    -1.6740    -4.9130 hn         1 1FE       0.468133
@<TRIPOS>BOND
     1    15    14 1
     2    13    12 2
     3    14    12 1
     4    12    11 1
     5    11    10 1
     6     9    10 ar
     7     9     5 ar
     8    10     8 ar
     9     4     5 1
    10     4     2 1
    11     5     6 ar
    12     8     7 ar
    13     2     1 2
    14     2     3 1
    15     6     7 ar
    16     6     3 1
    17     3    16 1
    18     4    17 1
    19     7    18 1
    20     8    19 1
    21     9    20 1
    22    11    21 1
    23    14    22 1
    24    14    23 1
    25    15    24 1
    26    15    25 1
    27    26    15 1
@<TRIPOS>SUBSTRUCTURE
     1 1FE         1 TEMP              0 ****  ****    0 ROOT
