@<TRIPOS>MOLECULE
1FF
   24    25     1     0     0
SMALL
bcc


@<TRIPOS>ATOM
      1 O1           0.2040    -0.2250     0.2220 o          1 1FF      -0.827800
      2 C11          1.2480     0.4450    -0.0120 c          1 1FF       0.934200
      3 O2           1.6690     1.3730     0.7400 o          1 1FF      -0.827800
      4 C1           1.9960     0.1490    -1.2820 cc         1 1FF      -0.217900
      5 C3           1.3530     0.0670    -2.5800 cc         1 1FF       0.303200
      6 N2           2.2550    -0.1890    -3.5550 nd         1 1FF      -0.551800
      7 N1           3.4510    -0.3180    -2.9550 na         1 1FF       0.054400
      8 C4           4.6820    -0.4100    -3.6910 c3         1 1FF       0.050600
      9 C2           3.3530    -0.1010    -1.5480 cd         1 1FF      -0.078300
     10 C5           4.4810    -0.1940    -0.6400 ca         1 1FF       0.008000
     11 C10          4.5610     0.6860     0.4530 ca         1 1FF      -0.118500
     12 C9           5.6410     0.6120     1.3290 ca         1 1FF      -0.148000
     13 C8           6.6480    -0.3340     1.1370 ca         1 1FF      -0.148000
     14 C7           6.5640    -1.2230     0.0670 ca         1 1FF      -0.148000
     15 C6           5.4860    -1.1580    -0.8150 ca         1 1FF      -0.118500
     16 H2           0.2850     0.1730    -2.7720 h4         1 1FF       0.040100
     17 H3           4.6120     0.1400    -4.6670 h1         1 1FF       0.038700
     18 H4           5.5140     0.0290    -3.0790 h1         1 1FF       0.038700
     19 H5           4.9140    -1.4890    -3.9060 h1         1 1FF       0.038700
     20 H6           3.7310     1.4040     0.6240 ha         1 1FF       0.168500
     21 H7           5.6900     1.3010     2.1850 ha         1 1FF       0.116500
     22 H8           7.4980    -0.3860     1.8300 ha         1 1FF       0.110000
     23 H9           7.3430    -1.9830    -0.0800 ha         1 1FF       0.116500
     24 H10          5.4160    -1.8850    -1.6380 ha         1 1FF       0.168500
@<TRIPOS>BOND
     1     1     2 1   
     2     2     3 1   
     3     2     4 1   
     4     4     5 1   
     5     4     9 2   
     6     5     6 2   
     7     5    16 1   
     8     6     7 1   
     9     7     8 1   
    10     7     9 1   
    11     8    17 1   
    12     8    18 1   
    13     8    19 1   
    14     9    10 1   
    15    10    11 ar  
    16    10    15 ar  
    17    11    12 ar  
    18    11    20 1   
    19    12    13 ar  
    20    12    21 1   
    21    13    14 ar  
    22    13    22 1   
    23    14    15 ar  
    24    14    23 1   
    25    15    24 1   
@<TRIPOS>SUBSTRUCTURE
     1 1FF         1 TEMP              0 ****  ****    0 ROOT
