@<TRIPOS>MOLECULE
1FF
   24    25     1     0     0
SMALL
bcc


@<TRIPOS>ATOM
      1 O1          0.1680   -0.5380    0.0830 o         1 1FF     -0.827800
      2 C11         1.1550    0.2440   -0.0020 c         1 1FF      0.934200
      3 O2          1.4000    1.1590    0.8370 o         1 1FF     -0.827800
      4 C1          2.0550    0.1000   -1.1980 cc        1 1FF     -0.217900
      5 C3          1.5590    0.0360   -2.5600 cc        1 1FF      0.303200
      6 N2          2.5770   -0.0700   -3.4450 nd        1 1FF     -0.551800
      7 N1          3.7120   -0.1200   -2.7280 na        1 1FF      0.054400
      8 C4          5.0150   -0.0470   -3.3310 c3        1 1FF      0.050600
      9 C2          3.4500   -0.0010   -1.3300 cd        1 1FF     -0.078300
     10 C5          4.4850   -0.0410   -0.3120 ca        1 1FF      0.008000
     11 C10         4.3620    0.7730    0.8270 ca        1 1FF     -0.118500
     12 C9          5.3490    0.7500    1.8090 ca        1 1FF     -0.148000
     13 C8          6.4620   -0.0800    1.6770 ca        1 1FF     -0.148000
     14 C7          6.5790   -0.9050    0.5600 ca        1 1FF     -0.148000
     15 C6          5.5950   -0.8900   -0.4280 ca        1 1FF     -0.118500
     16 H2          0.5110    0.0500   -2.8600 h4        1 1FF      0.040100
     17 H3          5.3770   -1.0830   -3.5750 h1        1 1FF      0.038700
     18 H4          5.7310    0.4320   -2.6120 h1        1 1FF      0.038700
     19 H5          4.9880    0.5520   -4.2790 h1        1 1FF      0.038700
     20 H6          3.4490    1.3960    0.9450 ha        1 1FF      0.168500
     21 H7          5.2400    1.3870    2.6990 ha        1 1FF      0.116500
     22 H8          7.2390   -0.0920    2.4540 ha        1 1FF      0.110000
     23 H9          7.4430   -1.5760    0.4590 ha        1 1FF      0.116500
     24 H10         5.6840   -1.5680   -1.2890 ha        1 1FF      0.168500
@<TRIPOS>BOND
     1    1    2 1   
     2    2    3 1   
     3    2    4 1   
     4    4    5 1   
     5    4    9 2   
     6    5    6 2   
     7    5   16 1   
     8    6    7 1   
     9    7    8 1   
    10    7    9 1   
    11    8   17 1   
    12    8   18 1   
    13    8   19 1   
    14    9   10 1   
    15   10   11 ar  
    16   10   15 ar  
    17   11   12 ar  
    18   11   20 1   
    19   12   13 ar  
    20   12   21 1   
    21   13   14 ar  
    22   13   22 1   
    23   14   15 ar  
    24   14   23 1   
    25   15   24 1   
@<TRIPOS>SUBSTRUCTURE
     1 1FF         1 TEMP              0 ****  ****    0 ROOT
