@<TRIPOS>MOLECULE
molecule
   24    25     1     0     0
SMALL
bcc


@<TRIPOS>ATOM
      1 O1           0.0000     0.0000     0.0000 o          1 1FF      -0.845300
      2 C11          1.3480     0.0000     0.0000 c          1 1FF       0.910200
      3 O2           1.9550     0.0000     1.0530 o          1 1FF      -0.845300
      4 C1           2.0830     0.0010    -1.2720 cc         1 1FF      -0.289900
      5 C3           1.5210     0.0020    -2.5670 cc         1 1FF       0.361200
      6 N2           2.4930     0.0030    -3.4360 nd         1 1FF      -0.572800
      7 N1           3.7170     0.0030    -2.7580 na         1 1FF       0.051400
      8 C4           5.0430     0.0070    -3.3820 c3         1 1FF       0.072600
      9 C2           3.4700     0.0070    -1.4300 cd         1 1FF      -0.042300
     10 C5           4.4760     0.0080    -0.3490 ca         1 1FF       0.025000
     11 C10          4.3300     0.8650     0.7440 ca         1 1FF      -0.084500
     12 C9           5.2730     0.8610     1.7510 ca         1 1FF      -0.157500
     13 C8           6.3630     0.0110     1.6790 ca         1 1FF      -0.144000
     14 C7           6.5130    -0.8410     0.5980 ca         1 1FF      -0.157500
     15 C6           5.5740    -0.8520    -0.4110 ca         1 1FF      -0.084500
     16 H2           0.4630     0.0010    -2.8000 h4         1 1FF       0.057100
     17 H3           5.6540     0.7770    -2.9260 h1         1 1FF       0.038700
     18 H4           4.9420     0.2070    -4.4420 h1         1 1FF       0.038700
     19 H5           5.5120    -0.9590    -3.2400 h1         1 1FF       0.038700
     20 H6           3.5210     1.5850     0.7630 ha         1 1FF       0.148500
     21 H7           5.1630     1.5280     2.5970 ha         1 1FF       0.113000
     22 H8           7.1020     0.0130     2.4710 ha         1 1FF       0.105000
     23 H9           7.3710    -1.5000     0.5450 ha         1 1FF       0.113000
     24 H10          5.7060    -1.8410    -0.8320 ha         1 1FF       0.148500
@<TRIPOS>BOND
     1     8     7 1
     2    14    13 ar
     3    14    15 ar
     4    13    12 ar
     5    15    10 ar
     6    12    11 ar
     7     7     9 1
     8     7     6 1
     9    10    11 ar
    10    10     9 1
    11     9     4 2
    12     6     5 2
    13     4     5 1
    14     4     2 1
    15     3     2 1
    16     2     1 1
    17     5    16 1
    18     8    17 1
    19     8    18 1
    20     8    19 1
    21    11    20 1
    22    12    21 1
    23    13    22 1
    24    14    23 1
    25    15    24 1
@<TRIPOS>SUBSTRUCTURE
     1 1FF         1 TEMP              0 ****  ****    0 ROOT
