@<TRIPOS>MOLECULE
molecule
   49    52     1     0     0
SMALL
bcc


@<TRIPOS>ATOM
      1 O2           0.0000     0.0000     0.0000 o          1 1FG      -0.535100
      2 C15          1.2190     0.0000     0.0000 c          1 1FG       0.718100
      3 N3           1.9120     0.0000     1.1550 nc         1 1FG      -0.687100
      4 C16          1.9780    -0.0050    -1.2640 ca         1 1FG      -0.222600
      5 C21          3.3820    -0.0050    -1.1890 ca         1 1FG       0.165600
      6 C20          4.1330    -0.0100    -2.3560 ca         1 1FG      -0.188000
      7 C19          3.4940    -0.0150    -3.5780 ca         1 1FG      -0.073000
      8 C18          2.1090    -0.0150    -3.6530 ca         1 1FG      -0.168000
      9 C17          1.3460    -0.0110    -2.5050 ca         1 1FG      -0.035000
     10 N4           3.9720     0.0000     0.0600 na         1 1FG      -0.708600
     11 C14          3.2160     0.0000     1.1720 cd         1 1FG       0.677200
     12 C13          3.9120     0.0010     2.5090 c3         1 1FG       0.124500
     13 N1           2.9100     0.0020     3.5830 n3         1 1FG      -0.676600
     14 C1           2.1430    -1.2520     3.5890 c3         1 1FG       0.165100
     15 C2           3.5380     0.2400     4.8890 c3         1 1FG       0.088800
     16 C3           2.4690     0.4780     5.9240 c          1 1FG       0.663100
     17 O1           1.3060     0.5590     5.5880 o          1 1FG      -0.558100
     18 N2           2.8050     0.6010     7.2240 n          1 1FG      -0.379000
     19 C12          1.8140     0.7480     8.2050 ca         1 1FG       0.066600
     20 C11          0.5140     1.0460     7.8160 ca         1 1FG      -0.160000
     21 C10         -0.4760     1.1920     8.7660 ca         1 1FG      -0.112000
     22 C9          -0.1720     1.0360    10.1070 ca         1 1FG      -0.150000
     23 C8           1.1200     0.7400    10.4960 ca         1 1FG      -0.113000
     24 C7           2.1190     0.5960     9.5480 ca         1 1FG      -0.123300
     25 C6           3.5180     0.2830    10.0080 c3         1 1FG      -0.028100
     26 C5           4.3330    -0.3240     8.8670 c3         1 1FG      -0.099400
     27 C4           4.2150     0.5780     7.6360 c3         1 1FG       0.098000
     28 H1           5.2150    -0.0110    -2.3070 ha         1 1FG       0.132000
     29 H2           4.0800    -0.0180    -4.4890 ha         1 1FG       0.135000
     30 H3           1.6240    -0.0190    -4.6220 ha         1 1FG       0.138000
     31 H4           0.2650    -0.0100    -2.5680 ha         1 1FG       0.162000
     32 H5           4.9700     0.0010     0.1380 hn         1 1FG       0.446800
     33 H6           4.5320     0.8850     2.5920 h1         1 1FG       0.047700
     34 H7           4.5320    -0.8840     2.5930 h1         1 1FG       0.047700
     35 H9           2.4040    -1.8310     4.4670 h1         1 1FG       0.044033
     36 H10          1.0840    -1.0270     3.6060 h1         1 1FG       0.044033
     37 H11          2.3770    -1.8230     2.6980 h1         1 1FG       0.044033
     38 H12          4.1270    -0.6240     5.1700 h1         1 1FG       0.048200
     39 H13          4.1800     1.1100     4.8270 h1         1 1FG       0.048200
     40 H14          0.2780     1.1680     6.7660 ha         1 1FG       0.204000
     41 H15         -1.4900     1.4240     8.4630 ha         1 1FG       0.135000
     42 H16         -0.9490     1.1500    10.8540 ha         1 1FG       0.127000
     43 H17          1.3520     0.6200    11.5470 ha         1 1FG       0.128000
     44 H18          3.9960     1.1960    10.3420 hc         1 1FG       0.052700
     45 H19          3.4730    -0.4240    10.8290 hc         1 1FG       0.052700
     46 H20          5.3730    -0.3960     9.1640 hc         1 1FG       0.054200
     47 H21          3.9480    -1.3090     8.6310 hc         1 1FG       0.054200
     48 H22          4.5390     1.5810     7.8860 h1         1 1FG       0.050700
     49 H23          4.8240     0.1800     6.8330 h1         1 1FG       0.050700
@<TRIPOS>BOND
     1     1     2 2
     2     3     2 1
     3     3    11 2
     4     2     4 1
     5    26    25 1
     6    26    27 1
     7    25    24 1
     8    27    18 1
     9    12    11 1
    10    12    13 1
    11    11    10 1
    12     4     9 ar
    13     4     5 ar
    14     9     8 ar
    15    24    23 ar
    16    24    19 ar
    17    23    22 ar
    18    18    19 1
    19    18    16 1
    20    10     5 1
    21    13    14 1
    22    13    15 1
    23     5     6 ar
    24    19    20 ar
    25     8     7 ar
    26    15    16 1
    27    22    21 ar
    28    16    17 2
    29    20    21 ar
    30     6     7 ar
    31     6    28 1
    32     7    29 1
    33     8    30 1
    34     9    31 1
    35    10    32 1
    36    12    33 1
    37    12    34 1
    38    14    35 1
    39    14    36 1
    40    14    37 1
    41    15    38 1
    42    15    39 1
    43    20    40 1
    44    21    41 1
    45    22    42 1
    46    23    43 1
    47    25    44 1
    48    25    45 1
    49    26    46 1
    50    26    47 1
    51    27    48 1
    52    27    49 1
@<TRIPOS>SUBSTRUCTURE
     1 1FG         1 TEMP              0 ****  ****    0 ROOT
