@<TRIPOS>MOLECULE
1FG
   50    53     1     0     0
SMALL
bcc


@<TRIPOS>ATOM
      1 O2           2.4740     2.7020    -0.3100 o          1 1FG      -0.499100
      2 C15          3.0900     1.6290    -0.2910 c          1 1FG       0.717100
      3 N3           3.3240     0.9890     0.9630 nc         1 1FG      -0.741100
      4 C16          3.6040     0.9530    -1.5020 ca         1 1FG      -0.203600
      5 C21          4.2910    -0.2820    -1.3760 ca         1 1FG       0.159600
      6 C20          4.7890    -0.9260    -2.5280 ca         1 1FG      -0.173000
      7 C19          4.5970    -0.3390    -3.7740 ca         1 1FG      -0.059000
      8 C18          3.9190     0.8770    -3.8990 ca         1 1FG      -0.145000
      9 C17          3.4260     1.5200    -2.7700 ca         1 1FG      -0.035000
     10 N4           4.4520    -0.8490    -0.0990 na         1 1FG      -0.710600
     11 C14          3.9700    -0.1510     1.0010 cd         1 1FG       0.650200
     12 C13          4.2270    -0.8270     2.3600 c3         1 1FG       0.064500
     13 N1           3.8140    -0.0020     3.5420 nx         1 1FG      -0.655400
     14 C1           2.3430    -0.0350     3.7610 c3         1 1FG       0.084100
     15 C2           4.5190    -0.4670     4.7810 c3         1 1FG       0.015800
     16 C3           6.0100    -0.0550     4.7990 c          1 1FG       0.641100
     17 O1           6.4670     0.4990     3.7760 o          1 1FG      -0.604100
     18 N2           6.7230    -0.2590     5.9550 n          1 1FG      -0.323000
     19 C12          8.1280     0.0180     6.0050 ca         1 1FG       0.009600
     20 C11          8.6610     1.1570     5.3690 ca         1 1FG      -0.111000
     21 C10         10.0240     1.4250     5.4440 ca         1 1FG      -0.114000
     22 C9          10.8740     0.5740     6.1490 ca         1 1FG      -0.109000
     23 C8          10.3520    -0.5460     6.7910 ca         1 1FG      -0.116000
     24 C7           8.9850    -0.8400     6.7350 ca         1 1FG      -0.085300
     25 C6           8.4960    -2.0240     7.4920 c3         1 1FG      -0.042100
     26 C5           7.0400    -2.3520     7.2460 c3         1 1FG      -0.098400
     27 C4           6.2290    -1.0730     7.0550 c3         1 1FG       0.078000
     28 H1           5.3270    -1.8830    -2.4500 ha         1 1FG       0.147000
     29 H2           4.9870    -0.8430    -4.6740 ha         1 1FG       0.155000
     30 H3           3.7770     1.3260    -4.8950 ha         1 1FG       0.160000
     31 H4           2.8900     2.4820    -2.8500 ha         1 1FG       0.174000
     32 H5           5.0020    -1.6690     0.0040 hn         1 1FG       0.461800
     33 H6           3.6660    -1.8040     2.3970 hx         1 1FG       0.124200
     34 H7           5.3420    -1.0100     2.4510 hx         1 1FG       0.124200
     35 H9           2.0270    -1.0770     4.0270 hx         1 1FG       0.110700
     36 H10          1.8090     0.2980     2.8290 hx         1 1FG       0.110700
     37 H11          2.0820     0.6690     4.5970 hx         1 1FG       0.110700
     38 H12          3.9920     0.0000     5.6640 hx         1 1FG       0.119700
     39 H13          4.4340    -1.5880     4.8390 hx         1 1FG       0.119700
     40 H14          8.0100     1.8390     4.8000 ha         1 1FG       0.156000
     41 H15         10.4290     2.3170     4.9410 ha         1 1FG       0.151000
     42 H16         11.9530     0.7870     6.2030 ha         1 1FG       0.151000
     43 H17         11.0200    -1.2150     7.3570 ha         1 1FG       0.148000
     44 H18          8.6510    -1.8240     8.5900 hc         1 1FG       0.071700
     45 H19          9.1260    -2.9190     7.2330 hc         1 1FG       0.071700
     46 H20          6.6200    -2.9110     8.1220 hc         1 1FG       0.060700
     47 H21          6.9400    -3.0130     6.3460 hc         1 1FG       0.060700
     48 H22          6.3070    -0.4440     7.9900 h1         1 1FG       0.062200
     49 H23          5.1470    -1.3380     6.9090 h1         1 1FG       0.062200
     50 H111         4.1100     0.9770     3.3580 hn         1 1FG       0.494800
@<TRIPOS>BOND
     1     1     2 2   
     2     2     3 1   
     3     2     4 1   
     4     3    11 2   
     5     4     5 ar  
     6     4     9 ar  
     7     5     6 ar  
     8     5    10 1   
     9     6     7 ar  
    10     6    28 1   
    11     7     8 ar  
    12     7    29 1   
    13     8     9 ar  
    14     8    30 1   
    15     9    31 1   
    16    10    11 1   
    17    10    32 1   
    18    11    12 1   
    19    12    13 1   
    20    12    33 1   
    21    12    34 1   
    22    13    14 1   
    23    13    15 1   
    24    13    50 1   
    25    14    35 1   
    26    14    36 1   
    27    14    37 1   
    28    15    16 1   
    29    15    38 1   
    30    15    39 1   
    31    16    17 2   
    32    16    18 1   
    33    18    19 1   
    34    18    27 1   
    35    19    20 ar  
    36    19    24 ar  
    37    20    21 ar  
    38    20    40 1   
    39    21    22 ar  
    40    21    41 1   
    41    22    23 ar  
    42    22    42 1   
    43    23    24 ar  
    44    23    43 1   
    45    24    25 1   
    46    25    26 1   
    47    25    44 1   
    48    25    45 1   
    49    26    27 1   
    50    26    46 1   
    51    26    47 1   
    52    27    48 1   
    53    27    49 1   
@<TRIPOS>SUBSTRUCTURE
     1 1FG         1 TEMP              0 ****  ****    0 ROOT
