@<TRIPOS>MOLECULE
1FJ
   38    41     1     0     0
SMALL
bcc


@<TRIPOS>ATOM
      1 C10          0.0000     0.0000     0.0000 c          1 1FJ       0.629300
      2 C13          6.1930     0.0000     0.0000 cc         1 1FJ      -0.143000
      3 C17          7.1570     0.0000     0.9220 cd         1 1FJ       0.024900
      4 C20         -4.5570    -0.8970    -0.8520 ca         1 1FJ      -0.074300
      5 C21         -2.7250     0.4850     0.7000 ca         1 1FJ      -0.104000
      6 C22         -4.0400     0.3810     1.1100 ca         1 1FJ      -0.082000
      7 C24         -4.9550    -0.3100     0.3350 ca         1 1FJ      -0.108000
      8 N01          3.6850     0.0030    -0.2320 n          1 1FJ       0.375500
      9 C02          2.4830    -0.0010     0.4130 cc         1 1FJ       0.389200
     10 C03          1.3520     0.0040    -0.4270 ce         1 1FJ      -0.738800
     11 C04          3.5810     0.0100    -1.5850 cs         1 1FJ       0.424300
     12 C05          4.8920    -0.0020     0.4840 cc         1 1FJ      -0.186400
     13 C06          4.8330    -0.0100     1.8750 cd         1 1FJ      -0.064700
     14 N07          2.4260    -0.0090     1.7560 nd         1 1FJ      -0.554100
     15 S08          1.8410     0.0120    -1.9040 sx         1 1FJ      -0.039900
     16 C09          3.5160    -0.0130     2.5180 c          1 1FJ       0.733100
     17 N11         -0.9940     0.0000    -0.9100 ns         1 1FJ      -0.058100
     18 S12          6.4630    -0.0030     2.5350 ss         1 1FJ      -0.141800
     19 C14         -2.3220    -0.1040    -0.4920 ca         1 1FJ      -0.083400
     20 S15          4.7690     0.0170    -2.6560 s          1 1FJ      -0.371400
     21 C16         -3.2440    -0.7970    -1.2680 ca         1 1FJ      -0.119300
     22 O18          3.4210    -0.0210     3.7360 o          1 1FJ      -0.549100
     23 O19         -0.2630    -0.0070     1.1890 o          1 1FJ      -0.569100
     24 C23         -2.8110    -1.4380    -2.5620 c3         1 1FJ       0.054200
     25 H1           6.4110     0.0020    -1.0610 ha         1 1FJ       0.176000
     26 H2           8.2190     0.0020     0.7060 h4         1 1FJ       0.156000
     27 H3          -2.0090     1.0260     1.3070 ha         1 1FJ       0.149000
     28 H4          -4.3550     0.8400     2.0390 ha         1 1FJ       0.106000
     29 H5          -5.9850    -0.3900     0.6590 ha         1 1FJ       0.106000
     30 H6          -0.7840     0.1290    -1.8800 hn         1 1FJ       0.146500
     31 H7          -2.6960    -0.6740    -3.3220 hc         1 1FJ       0.008700
     32 H8          -1.8660    -1.9470    -2.4150 hc         1 1FJ       0.008700
     33 H9          -3.5610    -2.1530    -2.8790 hc         1 1FJ       0.008700
     34 H10         -5.2730    -2.6980    -1.7340 hc         1 1FJ       0.008367
     35 H11         -6.5400    -1.5640    -1.2460 hc         1 1FJ       0.008367
     36 H12         -5.5730    -1.2410    -2.6920 hc         1 1FJ       0.008367
     37 H13          1.2200     0.5470    -2.9480 hs         1 1FJ       0.403000
     38 C25         -5.5560    -1.6530    -1.6900 c3         1 1FJ       0.062200
@<TRIPOS>BOND
     1     1    10 1   
     2     1    17 1   
     3     1    23 2   
     4     2     3 2   
     5     2    12 1   
     6     2    25 1   
     7     3    18 1   
     8     3    26 1   
     9     4     7 ar  
    10     4    21 ar  
    11     4    38 1   
    12     5     6 ar  
    13     5    19 ar  
    14     5    27 1   
    15     6     7 ar  
    16     6    28 1   
    17     7    29 1   
    18     8     9 1   
    19     8    11 1   
    20     8    12 1   
    21     9    10 1   
    22     9    14 2   
    23    10    15 2   
    24    11    15 1   
    25    11    20 2   
    26    12    13 2   
    27    13    16 1   
    28    13    18 1   
    29    14    16 1   
    30    15    37 1   
    31    16    22 2   
    32    17    19 1   
    33    17    30 1   
    34    19    21 ar  
    35    21    24 1   
    36    24    31 1   
    37    24    32 1   
    38    24    33 1   
    39    34    38 1   
    40    35    38 1   
    41    36    38 1   
@<TRIPOS>SUBSTRUCTURE
     1 1FJ         1 TEMP              0 ****  ****    0 ROOT
