@<TRIPOS>MOLECULE
1FJ
   38    41     1     0     0
SMALL
bcc


@<TRIPOS>ATOM
      1 C10          0.0600     0.1270     0.0060 c          1 1FJ       0.716300
      2 C13          6.3280    -0.2150     0.0740 cc         1 1FJ      -0.147000
      3 C17          7.2270     0.1360     1.0660 cd         1 1FJ      -0.176100
      4 C20         -3.0300    -0.6760     3.7530 ca         1 1FJ      -0.052300
      5 C21         -2.7610    -0.0080     1.0430 ca         1 1FJ      -0.148000
      6 C22         -4.0050     0.0530     1.6620 ca         1 1FJ      -0.108000
      7 C24         -4.1440    -0.2810     3.0030 ca         1 1FJ      -0.147000
      8 N01          3.8010    -0.1750    -0.1840 n          1 1FJ      -0.185200
      9 C02          2.5660     0.1490     0.4550 cc         1 1FJ       0.189200
     10 C03          1.4700    -0.1200    -0.3590 cd         1 1FJ      -0.314600
     11 C04          3.6330    -0.6810    -1.4850 cs         1 1FJ       0.294000
     12 C05          4.9890     0.0400     0.5120 cc         1 1FJ       0.058600
     13 C06          4.9690     0.5740     1.8230 cd         1 1FJ      -0.279700
     14 N07          2.5410     0.6680     1.7420 ns         1 1FJ      -0.463100
     15 S08          1.9540    -0.7200    -1.8550 ss         1 1FJ       0.161800
     16 C09          3.7160     0.9260     2.4770 c          1 1FJ       0.761100
     17 N11         -0.3500    -0.4880     1.1820 ns         1 1FJ      -0.477100
     18 S12          6.5060     0.7310     2.4270 ss         1 1FJ       0.225200
     19 C14         -1.6250    -0.4010     1.7780 ca         1 1FJ       0.057600
     20 S15          4.7250    -1.1550    -2.4930 s          1 1FJ      -0.358400
     21 C16         -1.7620    -0.7320     3.1570 ca         1 1FJ      -0.117300
     22 O18          3.6000     1.4160     3.6120 o          1 1FJ      -0.600500
     23 O19         -0.6810     0.8370    -0.6940 o          1 1FJ      -0.565100
     24 C23         -0.5710    -1.1350     3.9450 c3         1 1FJ      -0.055800
     25 H1           6.5700    -0.6280    -0.9140 ha         1 1FJ       0.207000
     26 H2           8.3100     0.0320     0.9640 h4         1 1FJ       0.188000
     27 H3          -2.6760     0.2600    -0.0230 ha         1 1FJ       0.168000
     28 H4          -4.8830     0.3670     1.0770 ha         1 1FJ       0.136000
     29 H5          -5.1350    -0.2340     3.4810 ha         1 1FJ       0.134000
     30 H6           0.2910    -1.1120     1.6200 hn         1 1FJ       0.322500
     31 H7          -0.8030    -1.2410     5.0330 hc         1 1FJ       0.043700
     32 H8           0.2430    -0.3710     3.8540 hc         1 1FJ       0.043700
     33 H9          -0.1780    -2.1200     3.5850 hc         1 1FJ       0.043700
     34 H10         -4.3060    -0.9750     5.4650 hc         1 1FJ       0.045700
     35 H11         -2.8630    -2.0660     5.3850 hc         1 1FJ       0.045700
     36 H12         -2.6610    -0.3200     5.8400 hc         1 1FJ       0.045700
     37 H13          1.6660     0.9840     2.1060 hn         1 1FJ       0.361500
     38 C25         -3.2250    -1.0270     5.1820 c3         1 1FJ      -0.054800
@<TRIPOS>BOND
     1     1    10 1   
     2     1    17 1   
     3     1    23 2   
     4     2     3 2   
     5     2    12 1   
     6     2    25 1   
     7     3    18 1   
     8     3    26 1   
     9     4     7 ar  
    10     4    21 ar  
    11     4    38 1   
    12     5     6 ar  
    13     5    19 ar  
    14     5    27 1   
    15     6     7 ar  
    16     6    28 1   
    17     7    29 1   
    18     8     9 1   
    19     8    11 1   
    20     8    12 1   
    21     9    10 2   
    22     9    14 1   
    23    10    15 1   
    24    11    15 1   
    25    11    20 2   
    26    12    13 2   
    27    13    16 1   
    28    13    18 1   
    29    14    16 1   
    30    14    37 1   
    31    16    22 2   
    32    17    19 1   
    33    17    30 1   
    34    19    21 ar  
    35    21    24 1   
    36    24    31 1   
    37    24    32 1   
    38    24    33 1   
    39    34    38 1   
    40    35    38 1   
    41    36    38 1   
@<TRIPOS>SUBSTRUCTURE
     1 1FJ         1 TEMP              0 ****  ****    0 ROOT
