@<TRIPOS>MOLECULE
molecule
   38    41     1     0     0
SMALL
bcc


@<TRIPOS>ATOM
      1 C10          0.0000     0.0000     0.0000 c          1 1FJ       0.691300
      2 C13          6.1930     0.0000     0.0000 cc         1 1FJ      -0.167000
      3 C17          7.1570     0.0000     0.9220 cd         1 1FJ      -0.070100
      4 C20         -4.5570    -0.8970    -0.8520 ca         1 1FJ      -0.068300
      5 C21         -2.7250     0.4850     0.7000 ca         1 1FJ      -0.125000
      6 C22         -4.0400     0.3810     1.1100 ca         1 1FJ      -0.113000
      7 C24         -4.9550    -0.3100     0.3350 ca         1 1FJ      -0.135000
      8 N01          3.6850     0.0030    -0.2320 n          1 1FJ      -0.177500
      9 C02          2.4830    -0.0010     0.4130 cd         1 1FJ       0.587200
     10 C03          1.3520     0.0040    -0.4270 cf         1 1FJ      -0.708800
     11 C04          3.5810     0.0100    -1.5850 cs         1 1FJ       0.432300
     12 C05          4.8920    -0.0020     0.4840 cc         1 1FJ       0.009600
     13 C06          4.8330    -0.0100     1.8750 cd         1 1FJ      -0.163700
     14 N07          2.4260    -0.0090     1.7560 nc         1 1FJ      -0.614100
     15 S08          1.8410     0.0120    -1.9040 sx         1 1FJ       0.274100
     16 C09          3.5160    -0.0130     2.5180 c          1 1FJ       0.735100
     17 N11         -0.9940     0.0000    -0.9100 ns         1 1FJ      -0.483100
     18 S12          6.4630    -0.0030     2.5350 ss         1 1FJ      -0.000800
     19 C14         -2.3220    -0.1040    -0.4920 ca         1 1FJ       0.054600
     20 S15          4.7690     0.0170    -2.6560 s          1 1FJ      -0.266400
     21 C16         -3.2440    -0.7970    -1.2680 ca         1 1FJ      -0.111300
     22 O18          3.4210    -0.0210     3.7360 o          1 1FJ      -0.512100
     23 O19         -0.2630    -0.0070     1.1890 o          1 1FJ      -0.520100
     24 C23         -2.8110    -1.4380    -2.5620 c3         1 1FJ      -0.049800
     25 H1           6.4110     0.0020    -1.0610 ha         1 1FJ       0.188000
     26 H2           8.2190     0.0020     0.7060 h4         1 1FJ       0.183000
     27 H3          -2.0090     1.0260     1.3070 ha         1 1FJ       0.168000
     28 H4          -4.3550     0.8400     2.0390 ha         1 1FJ       0.137000
     29 H5          -5.9850    -0.3900     0.6590 ha         1 1FJ       0.131000
     30 H6          -0.7840     0.1290    -1.8800 hn         1 1FJ       0.310500
     31 H7          -2.6960    -0.6740    -3.3220 hc         1 1FJ       0.042367
     32 H8          -1.8660    -1.9470    -2.4150 hc         1 1FJ       0.042367
     33 H9          -3.5610    -2.1530    -2.8790 hc         1 1FJ       0.042367
     34 H10         -5.2730    -2.6980    -1.7340 hc         1 1FJ       0.043700
     35 H11         -6.5400    -1.5640    -1.2460 hc         1 1FJ       0.043700
     36 H12         -5.5730    -1.2410    -2.6920 hc         1 1FJ       0.043700
     37 H13          1.2200     0.5470    -2.9480 hs         1 1FJ       0.172000
     38 C25         -5.5560    -1.6530    -1.6900 c3         1 1FJ      -0.045800
@<TRIPOS>BOND
     1    18     3 1
     2    18    13 1
     3     3     2 2
     4    22    16 2
     5    13    16 1
     6    13    12 2
     7     2    12 1
     8    16    14 1
     9    12     8 1
    10    14     9 2
    11     8     9 1
    12     8    11 1
    13     9    10 1
    14    24    21 1
    15    11    20 2
    16    11    15 1
    17    10    15 2
    18    10     1 1
    19    38     4 1
    20    21     4 ar
    21    21    19 ar
    22    17     1 1
    23    17    19 1
    24     1    23 2
    25     4     7 ar
    26    19     5 ar
    27     7     6 ar
    28     5     6 ar
    29     2    25 1
    30     3    26 1
    31     5    27 1
    32     6    28 1
    33     7    29 1
    34    17    30 1
    35    24    31 1
    36    24    32 1
    37    24    33 1
    38    38    34 1
    39    38    35 1
    40    38    36 1
    41    15    37 1
@<TRIPOS>SUBSTRUCTURE
     1 1FJ         1 TEMP              0 ****  ****    0 ROOT
