@<TRIPOS>MOLECULE
molecule
   31    33     1     0     0
SMALL
bcc


@<TRIPOS>ATOM
      1 O            0.0000     0.0000     0.0000 o          1 1FK      -0.577100
      2 C1           1.2160     0.0000     0.0000 c          1 1FK       0.608300
      3 C            1.9690     0.0000     1.3060 c3         1 1FK      -0.181100
      4 C2           1.9180    -0.0050    -1.2140 cc         1 1FK      -0.293300
      5 N3           1.3500    -0.0100    -2.4790 na         1 1FK       0.119700
      6 C13          0.0440    -0.0120    -2.8760 cd         1 1FK      -0.068300
      7 C12         -0.2840    -0.0180    -4.1850 cc         1 1FK      -0.178000
      8 C11          0.7260    -0.0220    -5.1670 cc         1 1FK       0.174600
      9 N2           0.3960    -0.0280    -6.5160 nv         1 1FK      -0.984200
     10 C10          2.0530    -0.0200    -4.7690 cd         1 1FK      -0.128000
     11 C9           2.3550    -0.0140    -3.4060 cd         1 1FK       0.015700
     12 C4           3.5880    -0.0110    -2.7140 cc         1 1FK      -0.263800
     13 C3           3.3010     0.0010    -1.3520 cc         1 1FK      -0.031000
     14 C5           4.9330    -0.0140    -3.3250 ca         1 1FK       0.793800
     15 N1           5.0440    -0.0150    -4.6490 nb         1 1FK      -0.746000
     16 C8           6.2340    -0.0180    -5.2260 ca         1 1FK       0.466200
     17 C7           7.3710    -0.0200    -4.4320 ca         1 1FK      -0.405600
     18 C6           7.2200    -0.0190    -3.0530 ca         1 1FK       0.466200
     19 N            6.0030    -0.0110    -2.5380 nb         1 1FK      -0.746000
     20 H1           2.6110    -0.8710     1.3530 hc         1 1FK       0.061367
     21 H2           2.5720     0.8970     1.3760 hc         1 1FK       0.061367
     22 H3           1.2650    -0.0260     2.1290 hc         1 1FK       0.061367
     23 H4          -0.7400    -0.0090    -2.1300 h4         1 1FK       0.195000
     24 H5          -1.3260    -0.0200    -4.4810 ha         1 1FK       0.158000
     25 H6           0.2820     0.8370    -7.0070 hn         1 1FK       0.433800
     26 H7           0.2820    -0.8970    -6.9990 hn         1 1FK       0.433800
     27 H8           2.8460    -0.0230    -5.5070 ha         1 1FK       0.185000
     28 H9           4.0200     0.1190    -0.5510 ha         1 1FK       0.172000
     29 H10          6.3190    -0.0190    -6.3060 h4         1 1FK       0.027600
     30 H11          8.3580    -0.0250    -4.8800 ha         1 1FK       0.144000
     31 H12          8.0900    -0.0180    -2.4070 h4         1 1FK       0.027600
@<TRIPOS>BOND
     1    16    15 ar  
     2    16    17 ar  
     3    15    14 ar  
     4     3     2 1   
     5    17    18 ar  
     6    13    12 1   
     7    13     4 2   
     8    14    12 1   
     9    14    19 ar  
    10    12    11 2   
    11     4     2 1   
    12     4     5 1   
    13     2     1 2   
    14    11     5 1   
    15    11    10 1   
    16     5     6 1   
    17    10     8 2   
    18     6     7 2   
    19     8     7 1   
    20     8     9 1   
    21    18    19 ar  
    22     3    20 1   
    23     3    21 1   
    24     3    22 1   
    25     6    23 1   
    26     7    24 1   
    27     9    25 1   
    28     9    26 1   
    29    10    27 1   
    30    13    28 1   
    31    16    29 1   
    32    17    30 1   
    33    18    31 1   
@<TRIPOS>SUBSTRUCTURE
     1 1FK         1 TEMP              0 ****  ****    0 ROOT
