@<TRIPOS>MOLECULE
1FK
   31    33     1     0     0
SMALL
bcc


@<TRIPOS>ATOM
      1 O            0.0000     0.0000     0.0000 o          1 1FK      -0.620100
      2 C1           1.2160     0.0000     0.0000 c          1 1FK       0.676300
      3 C            1.9690     0.0000     1.3060 c3         1 1FK      -0.082100
      4 C2           1.9180    -0.0050    -1.2140 cc         1 1FK      -0.531300
      5 N3           1.3500    -0.0100    -2.4790 na         1 1FK       0.751700
      6 C13          0.0440    -0.0120    -2.8760 cc         1 1FK      -0.298300
      7 C12         -0.2840    -0.0180    -4.1850 cd         1 1FK      -0.092000
      8 C11          0.7260    -0.0220    -5.1670 cd         1 1FK       0.002600
      9 N2           0.3960    -0.0280    -6.5160 nv         1 1FK      -0.545200
     10 C10          2.0530    -0.0200    -4.7690 cc         1 1FK      -0.056000
     11 C9           2.3550    -0.0140    -3.4060 cc         1 1FK      -0.212300
     12 C4           3.5880    -0.0110    -2.7140 cd         1 1FK      -0.281800
     13 C3           3.3010     0.0010    -1.3520 cd         1 1FK       0.013000
     14 C5           4.9330    -0.0140    -3.3250 ca         1 1FK       0.725800
     15 N1           5.0440    -0.0150    -4.6490 nb         1 1FK      -0.637500
     16 C8           6.2340    -0.0180    -5.2260 ca         1 1FK       0.451200
     17 C7           7.3710    -0.0200    -4.4320 ca         1 1FK      -0.372600
     18 C6           7.2200    -0.0190    -3.0530 ca         1 1FK       0.451200
     19 N            6.0030    -0.0110    -2.5380 nb         1 1FK      -0.637500
     20 H1           2.6110    -0.8710     1.3530 hc         1 1FK       0.024700
     21 H2           2.5720     0.8970     1.3760 hc         1 1FK       0.024700
     22 H3           1.2650    -0.0260     2.1290 hc         1 1FK       0.024700
     23 H4          -0.7400    -0.0090    -2.1300 h4         1 1FK       0.174000
     24 H5          -1.3260    -0.0200    -4.4810 ha         1 1FK       0.122000
     25 H6           0.2820     0.8370    -7.0070 hn         1 1FK       0.274800
     26 H7           0.2820    -0.8970    -6.9990 hn         1 1FK       0.274800
     27 H8           2.8460    -0.0230    -5.5070 ha         1 1FK       0.150000
     28 H9           4.0200     0.1190    -0.5510 ha         1 1FK       0.139000
     29 H10          6.3190    -0.0190    -6.3060 h4         1 1FK      -0.017400
     30 H11          8.3580    -0.0250    -4.8800 ha         1 1FK       0.122000
     31 H12          8.0900    -0.0180    -2.4070 h4         1 1FK      -0.017400
@<TRIPOS>BOND
     1     1     2 2   
     2     2     3 1   
     3     2     4 1   
     4     3    20 1   
     5     3    21 1   
     6     3    22 1   
     7     4     5 1   
     8     4    13 2   
     9     5     6 1   
    10     5    11 1   
    11     6     7 2   
    12     6    23 1   
    13     7     8 1   
    14     7    24 1   
    15     8     9 1   
    16     8    10 2   
    17     9    25 1   
    18     9    26 1   
    19    10    11 1   
    20    10    27 1   
    21    11    12 2   
    22    12    13 1   
    23    12    14 1   
    24    13    28 1   
    25    14    15 ar  
    26    14    19 ar  
    27    15    16 ar  
    28    16    17 ar  
    29    16    29 1   
    30    17    18 ar  
    31    17    30 1   
    32    18    19 ar  
    33    18    31 1   
@<TRIPOS>SUBSTRUCTURE
     1 1FK         1 TEMP              0 ****  ****    0 ROOT
