@<TRIPOS>MOLECULE
1FK
   31    33     1     0     0
SMALL
bcc


@<TRIPOS>ATOM
      1 O            0.0620     0.3060     0.0670 o          1 1FK      -0.580100
      2 C1           1.2960     0.1720     0.0360 c          1 1FK       0.612300
      3 C            2.1160     0.1500     1.2880 c3         1 1FK      -0.190100
      4 C2           2.0500     0.0290    -1.2000 cc         1 1FK      -0.290300
      5 N3           1.4770     0.0130    -2.4920 na         1 1FK       0.057700
      6 C13          0.1660     0.1250    -2.8750 cc         1 1FK      -0.029300
      7 C12         -0.1800     0.0880    -4.2070 cd         1 1FK      -0.224000
      8 C11          0.8290    -0.0770    -5.2200 cd         1 1FK       0.177600
      9 N2           0.4550    -0.2030    -6.5520 nv         1 1FK      -0.827200
     10 C10          2.1670    -0.1820    -4.8250 cc         1 1FK      -0.211000
     11 C9           2.5060    -0.1410    -3.4550 cc         1 1FK       0.072700
     12 C4           3.7470    -0.2230    -2.7410 cd         1 1FK      -0.285800
     13 C3           3.4440    -0.1180    -1.3540 cd         1 1FK      -0.017000
     14 C5           5.0870    -0.3810    -3.2850 ca         1 1FK       0.764800
     15 N1           6.1220    -0.4880    -2.3750 nb         1 1FK      -0.718500
     16 C8           7.3570    -0.6330    -2.8790 ca         1 1FK       0.439700
     17 C7           7.6220    -0.6800    -4.2620 ca         1 1FK      -0.392600
     18 C6           6.5070    -0.5630    -5.1090 ca         1 1FK       0.439700
     19 N            5.2510    -0.4140    -4.6520 nb         1 1FK      -0.718500
     20 H1           2.8570     0.9850     1.2720 hc         1 1FK       0.066033
     21 H2           2.6680    -0.8190     1.3630 hc         1 1FK       0.066033
     22 H3           1.4560     0.2640     2.1830 hc         1 1FK       0.066033
     23 H4          -0.5750     0.2450    -2.0590 h4         1 1FK       0.204000
     24 H5          -1.2390     0.1740    -4.4870 ha         1 1FK       0.155000
     25 H6           1.1790    -0.0610    -7.2180 hn         1 1FK       0.405800
     26 H7          -0.4210     0.1980    -6.7940 hn         1 1FK       0.405800
     27 H8           2.9730    -0.3070    -5.5620 ha         1 1FK       0.180000
     28 H9           4.1650    -0.1460    -0.5360 ha         1 1FK       0.172000
     29 H10          8.1730    -0.7170    -2.1380 h4         1 1FK       0.022600
     30 H11          8.6360    -0.8000    -4.6520 ha         1 1FK       0.152000
     31 H12          6.6170    -0.5880    -6.2080 h4         1 1FK       0.022600
@<TRIPOS>BOND
     1     1     2 2   
     2     2     3 1   
     3     2     4 1   
     4     3    20 1   
     5     3    21 1   
     6     3    22 1   
     7     4     5 1   
     8     4    13 2   
     9     5     6 1   
    10     5    11 1   
    11     6     7 2   
    12     6    23 1   
    13     7     8 1   
    14     7    24 1   
    15     8     9 1   
    16     8    10 2   
    17     9    25 1   
    18     9    26 1   
    19    10    11 1   
    20    10    27 1   
    21    11    12 2   
    22    12    13 1   
    23    12    14 1   
    24    13    28 1   
    25    14    15 ar  
    26    14    19 ar  
    27    15    16 ar  
    28    16    17 ar  
    29    16    29 1   
    30    17    18 ar  
    31    17    30 1   
    32    18    19 ar  
    33    18    31 1   
@<TRIPOS>SUBSTRUCTURE
     1 1FK         1 TEMP              0 ****  ****    0 ROOT
