@<TRIPOS>MOLECULE
molecule
   25    26     1     0     0
SMALL
bcc


@<TRIPOS>ATOM
      1 FAT          0.0000     0.0000     0.0000 f          1 1FL      -0.123900
      2 CAN          1.3540     0.0000     0.0000 ca         1 1FL       0.159900
      3 CAM          1.9690     0.0000     1.2670 ca         1 1FL      -0.217000
      4 CAF          3.3510    -0.0010     1.3270 ca         1 1FL       0.132900
      5 FAE          3.9410    -0.0030     2.5470 f          1 1FL      -0.158900
      6 CAG          4.1560    -0.0160     0.1960 ca         1 1FL      -0.192000
      7 CAH          3.5280    -0.0160    -1.0610 ca         1 1FL      -0.086000
      8 CAO          2.1150    -0.0160    -1.2120 cp         1 1FL      -0.028000
      9 CAP          1.4750    -0.0140    -2.5480 cp         1 1FL      -0.117000
     10 CAI          0.5360    -0.9680    -2.9070 ca         1 1FL      -0.040000
     11 CAJ         -0.0830    -0.9790    -4.1810 ca         1 1FL      -0.119600
     12 CAC         -1.0690    -2.0090    -4.5100 c          1 1FL       0.888200
     13 OAD         -1.3200    -2.9020    -3.5720 o          1 1FL      -0.826800
     14 OAB         -1.6260    -2.0410    -5.6110 o          1 1FL      -0.826800
     15 CAQ          1.7930     0.9690    -3.5110 ca         1 1FL      -0.113000
     16 CAR          1.2010     0.9970    -4.7850 ca         1 1FL      -0.228000
     17 CAK          0.2410     0.0060    -5.1140 ca         1 1FL       0.146100
     18 OAL         -0.3100     0.0590    -6.3430 oh         1 1FL      -0.476100
     19 HAM          1.3890     0.2350     2.1510 ha         1 1FL       0.156000
     20 HAG          5.2360    -0.0160     0.2810 ha         1 1FL       0.143000
     21 HAH          4.1460    -0.0280    -1.9510 ha         1 1FL       0.142000
     22 HAI          0.2670    -1.7330    -2.1890 ha         1 1FL       0.165000
     23 HAQ          2.5260     1.7260    -3.2600 ha         1 1FL       0.102000
     24 HAR          1.4650     1.7670    -5.5000 ha         1 1FL       0.118000
     25 HAL         -0.7500     0.8850    -6.4550 ho         1 1FL       0.400000
@<TRIPOS>BOND
     1     1     2 1   
     2     2     3 ar  
     3     2     8 ar  
     4     3     4 ar  
     5     3    19 1   
     6     4     5 1   
     7     4     6 ar  
     8     6     7 ar  
     9     6    20 1   
    10     7     8 ar  
    11     7    21 1   
    12     8     9 1   
    13     9    10 ar  
    14     9    15 ar  
    15    10    11 ar  
    16    10    22 1   
    17    11    12 1   
    18    11    17 ar  
    19    12    13 1   
    20    12    14 1   
    21    15    16 ar  
    22    15    23 1   
    23    16    17 ar  
    24    16    24 1   
    25    17    18 1   
    26    18    25 1   
@<TRIPOS>SUBSTRUCTURE
     1 1FL         1 TEMP              0 ****  ****    0 ROOT
