@<TRIPOS>MOLECULE
1FL
   25    26     1     0     0
SMALL
bcc


@<TRIPOS>ATOM
      1 FAT         -0.0110    -0.1350    -0.0260 f          1 1FL      -0.122900
      2 CAN          1.3400    -0.0740    -0.0040 ca         1 1FL       0.151900
      3 CAM          1.9800    -0.1080     1.2480 ca         1 1FL      -0.212000
      4 CAF          3.3780    -0.0310     1.3110 ca         1 1FL       0.118900
      5 FAE          4.0000    -0.0610     2.5170 f          1 1FL      -0.154900
      6 CAG          4.1360     0.0790     0.1330 ca         1 1FL      -0.184000
      7 CAH          3.4870     0.1080    -1.0950 ca         1 1FL      -0.097000
      8 CAO          2.0900     0.0330    -1.2010 cp         1 1FL      -0.020000
      9 CAP          1.4690     0.0690    -2.5190 cp         1 1FL      -0.149000
     10 CAI          0.4390    -0.8170    -2.8660 ca         1 1FL      -0.032000
     11 CAJ         -0.1270    -0.8170    -4.1400 ca         1 1FL      -0.221600
     12 CAC         -1.2190    -1.8240    -4.4530 c          1 1FL       0.918200
     13 OAD         -1.5410    -2.6550    -3.5640 o          1 1FL      -0.828800
     14 OAB         -1.7600    -1.7870    -5.6030 o          1 1FL      -0.828800
     15 CAQ          1.9280     0.9870    -3.4780 ca         1 1FL      -0.091000
     16 CAR          1.3730     1.0200    -4.7470 ca         1 1FL      -0.216000
     17 CAK          0.3430     0.1150    -5.0870 ca         1 1FL       0.197100
     18 OAL         -0.1300     0.2240    -6.3620 oh         1 1FL      -0.548100
     19 HAM          1.3850    -0.1950     2.1670 ha         1 1FL       0.153000
     20 HAG          5.2320     0.1360     0.1920 ha         1 1FL       0.138000
     21 HAH          4.0820     0.1830    -2.0200 ha         1 1FL       0.144000
     22 HAI          0.0510    -1.5450    -2.1310 ha         1 1FL       0.163000
     23 HAQ          2.7290     1.6940    -3.2160 ha         1 1FL       0.108000
     24 HAR          1.7210     1.7400    -5.4980 ha         1 1FL       0.127000
     25 HAL         -0.8450    -0.4380    -6.4980 ho         1 1FL       0.487000
@<TRIPOS>BOND
     1     1     2 1   
     2     2     3 ar  
     3     2     8 ar  
     4     3     4 ar  
     5     3    19 1   
     6     4     5 1   
     7     4     6 ar  
     8     6     7 ar  
     9     6    20 1   
    10     7     8 ar  
    11     7    21 1   
    12     8     9 1   
    13     9    10 ar  
    14     9    15 ar  
    15    10    11 ar  
    16    10    22 1   
    17    11    12 1   
    18    11    17 ar  
    19    12    13 1   
    20    12    14 1   
    21    15    16 ar  
    22    15    23 1   
    23    16    17 ar  
    24    16    24 1   
    25    17    18 1   
    26    18    25 1   
@<TRIPOS>SUBSTRUCTURE
     1 1FL         1 TEMP              0 ****  ****    0 ROOT
