@<TRIPOS>MOLECULE
1FL
   25    26     1     0     0
SMALL
bcc


@<TRIPOS>ATOM
      1 FAT        -0.0110   -0.1460   -0.0320 f         1 1FL     -0.122900
      2 CAN         1.3400   -0.0820   -0.0060 ca        1 1FL      0.151900
      3 CAM         1.9770   -0.1160    1.2480 ca        1 1FL     -0.212000
      4 CAF         3.3740   -0.0350    1.3130 ca        1 1FL      0.118900
      5 FAE         3.9940   -0.0660    2.5210 f         1 1FL     -0.154900
      6 CAG         4.1350    0.0770    0.1370 ca        1 1FL     -0.184000
      7 CAH         3.4890    0.1050   -1.0920 ca        1 1FL     -0.097000
      8 CAO         2.0920    0.0280   -1.2020 cp        1 1FL     -0.020000
      9 CAP         1.4740    0.0640   -2.5210 cp        1 1FL     -0.149000
     10 CAI         0.4460   -0.8250   -2.8710 ca        1 1FL     -0.032000
     11 CAJ        -0.1160   -0.8250   -4.1460 ca        1 1FL     -0.221600
     12 CAC        -1.2050   -1.8340   -4.4630 c         1 1FL      0.918200
     13 OAD        -1.5270   -2.6680   -3.5750 o         1 1FL     -0.828800
     14 OAB        -1.7430   -1.7980   -5.6140 o         1 1FL     -0.828800
     15 CAQ         1.9330    0.9830   -3.4780 ca        1 1FL     -0.091000
     16 CAR         1.3810    1.0160   -4.7480 ca        1 1FL     -0.216000
     17 CAK         0.3540    0.1090   -5.0910 ca        1 1FL      0.197100
     18 OAL        -0.1170    0.2180   -6.3670 oh        1 1FL     -0.548100
     19 HAM         1.3790   -0.2050    2.1650 ha        1 1FL      0.153000
     20 HAG         5.2300    0.1360    0.1990 ha        1 1FL      0.138000
     21 HAH         4.0850    0.1830   -2.0150 ha        1 1FL      0.144000
     22 HAI         0.0590   -1.5540   -2.1370 ha        1 1FL      0.163000
     23 HAQ         2.7320    1.6920   -3.2140 ha        1 1FL      0.108000
     24 HAR         1.7280    1.7380   -5.4980 ha        1 1FL      0.127000
     25 HAL        -0.8290   -0.4460   -6.5050 ho        1 1FL      0.487000
@<TRIPOS>BOND
     1    1    2 1   
     2    2    3 ar  
     3    2    8 ar  
     4    3    4 ar  
     5    3   19 1   
     6    4    5 1   
     7    4    6 ar  
     8    6    7 ar  
     9    6   20 1   
    10    7    8 ar  
    11    7   21 1   
    12    8    9 1   
    13    9   10 ar  
    14    9   15 ar  
    15   10   11 ar  
    16   10   22 1   
    17   11   12 1   
    18   11   17 ar  
    19   12   13 1   
    20   12   14 1   
    21   15   16 ar  
    22   15   23 1   
    23   16   17 ar  
    24   16   24 1   
    25   17   18 1   
    26   18   25 1   
@<TRIPOS>SUBSTRUCTURE
     1 1FL         1 TEMP              0 ****  ****    0 ROOT
