@<TRIPOS>MOLECULE
1FM
   48    49     1     0     0
SMALL
bcc


@<TRIPOS>ATOM
      1 C2         -0.1840    0.4820    0.1310 ca        1 1FM     -0.177600
      2 C3          1.2210    0.3660    0.0710 ca        1 1FM      0.053200
      3 C11        -0.8240    0.4300    1.3790 ca        1 1FM      0.208100
      4 C14         1.9570    0.1900    1.2410 ca        1 1FM     -0.192000
      5 C15         1.2950    0.1390    2.4830 ca        1 1FM      0.186100
      6 O15        -1.7140   -0.4650   -1.3920 os        1 1FM     -0.424900
      7 C16        -0.0930    0.2630    2.5670 ca        1 1FM     -0.301000
      8 C17         2.9250   -0.3140   -1.5880 c2        1 1FM     -0.142200
      9 C18        -1.4780   -1.0370   -3.7570 c3        1 1FM     -0.100200
     10 C23         1.8880    0.4490   -1.2230 ce        1 1FM     -0.133200
     11 C24         3.5990   -1.5310   -3.6670 c3        1 1FM      0.114100
     12 C26        -0.9570    0.6360   -1.1180 c         1 1FM      0.683700
     13 C31        -2.4180   -0.6100   -2.6350 c3        1 1FM      0.165100
     14 C34         3.5710   -0.1970   -2.9170 c3        1 1FM     -0.094200
     15 O38        -0.9620    1.6010   -1.8850 o         1 1FM     -0.549000
     16 C39         2.8690   -1.4760   -5.0270 c3        1 1FM      0.051100
     17 C40         1.3570   -1.4990   -4.8220 c         1 1FM      0.579300
     18 O40         0.7990   -2.6000   -4.7150 o         1 1FM     -0.543100
     19 C41         0.6710   -0.2090   -4.7550 ce        1 1FM     -0.271200
     20 C42        -0.5600    0.0030   -4.2660 c2        1 1FM     -0.063200
     21 O42         4.9390   -1.8800   -4.0030 oh        1 1FM     -0.611800
     22 O44         3.2240   -0.3180   -5.7620 oh        1 1FM     -0.595800
     23 O46        -2.1900    0.5680    1.3890 oh        1 1FM     -0.483100
     24 O48         2.1240   -0.0380    3.5690 os        1 1FM     -0.320900
     25 C59         1.4960   -0.0880    4.8460 c3        1 1FM      0.111700
     26 C62        -3.3180    0.5570   -2.9690 c3        1 1FM     -0.126100
     27 H14         3.0520    0.0990    1.2090 ha        1 1FM      0.158000
     28 H16        -0.6170    0.2300    3.5310 ha        1 1FM      0.145000
     29 H17         3.3510   -1.0730   -0.9110 ha        1 1FM      0.124000
     30 H18        -2.1150   -1.3860   -4.6190 hc        1 1FM      0.083200
     31 H18A       -0.8940   -1.9320   -3.3990 hc        1 1FM      0.083200
     32 H23         1.4550    1.1960   -1.9170 ha        1 1FM      0.158000
     33 H24         3.1390   -2.3520   -3.0480 h1        1 1FM      0.060700
     34 H31        -3.0700   -1.5070   -2.3870 h1        1 1FM      0.072700
     35 H34         4.6250    0.1690   -2.7770 hc        1 1FM      0.072700
     36 H34A        3.0430    0.5680   -3.5520 hc        1 1FM      0.072700
     37 H39         3.1650   -2.3940   -5.6150 h1        1 1FM      0.078700
     38 H41         1.2630    0.6430   -5.1390 ha        1 1FM      0.158000
     39 H42        -0.9450    1.0410   -4.2220 ha        1 1FM      0.148000
     40 HO42        5.4100   -2.0220   -3.1730 ho        1 1FM      0.409000
     41 HO44        4.1880   -0.3300   -5.8290 ho        1 1FM      0.422000
     42 HO46       -2.4960    0.4850    2.3050 ho        1 1FM      0.425000
     43 H59         2.3550   -0.2320    5.5500 h1        1 1FM      0.048367
     44 H59A        0.7890   -0.9510    4.9030 h1        1 1FM      0.048367
     45 H59B        0.9660    0.8710    5.0610 h1        1 1FM      0.048367
     46 H62        -4.0200    0.2570   -3.7840 hc        1 1FM      0.054367
     47 H62A       -3.9090    0.8470   -2.0670 hc        1 1FM      0.054367
     48 H62B       -2.7380    1.4510   -3.3040 hc        1 1FM      0.054367
@<TRIPOS>BOND
     1    1    2 ar
     2    1    3 ar
     3    1   12 1
     4    2    4 ar
     5    2   10 1
     6    3    7 ar
     7    3   23 1
     8    4    5 ar
     9    4   27 1
    10    5    7 ar
    11    5   24 1
    12    6   12 1
    13    6   13 1
    14    7   28 1
    15    8   10 2
    16    8   14 1
    17    8   29 1
    18    9   13 1
    19    9   20 1
    20    9   30 1
    21    9   31 1
    22   10   32 1
    23   11   14 1
    24   11   16 1
    25   11   21 1
    26   11   33 1
    27   12   15 2
    28   13   26 1
    29   13   34 1
    30   14   35 1
    31   14   36 1
    32   16   17 1
    33   16   22 1
    34   16   37 1
    35   17   18 2
    36   17   19 1
    37   19   20 2
    38   19   38 1
    39   20   39 1
    40   21   40 1
    41   22   41 1
    42   23   42 1
    43   24   25 1
    44   25   43 1
    45   25   44 1
    46   25   45 1
    47   26   46 1
    48   26   47 1
    49   26   48 1
@<TRIPOS>SUBSTRUCTURE
     1 1FM         1 TEMP              0 ****  ****    0 ROOT
