@<TRIPOS>MOLECULE
molecule
   50    54     1     0     0
SMALL
bcc


@<TRIPOS>ATOM
      1 C13          0.0000     0.0000     0.0000 ca         1 1FN       0.140900
      2 C18          5.6110    -0.4930     2.2820 cc         1 1FN      -0.305400
      3 C17          4.1490    -0.6240     2.1920 c          1 1FN       0.699300
      4 C20          6.3380     0.1890     1.2730 c          1 1FN       0.703700
      5 C22          8.3460    -0.2310     2.4240 cc         1 1FN       0.036600
      6 C23          7.6910    -0.8870     3.4160 cd         1 1FN      -0.257000
      7 C24          6.3050    -1.0320     3.3640 cd         1 1FN       0.042000
      8 C11          2.0760     0.0000     1.2030 ca         1 1FN       0.095600
      9 C12          1.3820     0.0000     0.0000 ca         1 1FN      -0.202000
     10 C34          8.2170     2.3420     0.1980 ca         1 1FN      -0.081000
     11 C27         -5.1580    -0.3220     1.3930 cc         1 1FN      -0.168200
     12 C33          8.9190     3.0050    -0.7880 ca         1 1FN      -0.161000
     13 C1          -4.0870    -1.2790     1.1130 ca         1 1FN      -0.244100
     14 C2          -4.7120    -2.5220     0.9140 ca         1 1FN       0.494800
     15 N3          -3.9770    -3.5940     0.6380 nb         1 1FN      -0.744000
     16 C4          -2.6650    -3.5320     0.5440 ca         1 1FN       0.484200
     17 C5          -1.9800    -2.3430     0.7270 ca         1 1FN      -0.371300
     18 C6          -2.6910    -1.1850     1.0180 ca         1 1FN       0.216100
     19 C8          -0.6950    -0.0020     1.2040 ca         1 1FN       0.032100
     20 C9          -0.0010    -0.0010     2.4040 ca         1 1FN      -0.089000
     21 C10          1.3800    -0.0010     2.4050 ca         1 1FN      -0.145000
     22 F14         -0.6750     0.0060    -1.1710 f          1 1FN      -0.125900
     23 N15          3.4760    -0.0000     1.2050 ns         1 1FN      -0.473100
     24 O19          3.5470    -1.2970     3.0080 o          1 1FN      -0.611100
     25 N21          7.6750     0.3000     1.3720 n          1 1FN      -0.211200
     26 O25          5.7530     0.6730     0.3200 o          1 1FN      -0.662500
     27 C26          8.3870     0.9740     0.3700 ca         1 1FN      -0.012400
     28 C28         -6.3120    -1.0070     1.3490 cd         1 1FN      -0.113100
     29 N29         -6.0620    -2.3230     1.0640 na         1 1FN      -0.279100
     30 C30          9.2630     0.2770    -0.4510 ca         1 1FN      -0.081000
     31 C31          9.9620     0.9430    -1.4370 ca         1 1FN      -0.161000
     32 C32          9.7920     2.3070    -1.6060 ca         1 1FN       0.150900
     33 F35         10.4770     2.9580    -2.5720 f          1 1FN      -0.131900
     34 H22          9.4230    -0.1260     2.4760 h4         1 1FN       0.166000
     35 H23          8.2470    -1.3010     4.2480 ha         1 1FN       0.159000
     36 H24          5.7760    -1.5550     4.1520 ha         1 1FN       0.169000
     37 H12          1.9240     0.0010    -0.9380 ha         1 1FN       0.155000
     38 H27         -5.0420     0.7360     1.5960 ha         1 1FN       0.161000
     39 H33          8.7870     4.0710    -0.9220 ha         1 1FN       0.156000
     40 H4          -2.1080    -4.4330     0.3180 h4         1 1FN       0.024100
     41 H5          -0.9000    -2.3150     0.6450 ha         1 1FN       0.151000
     42 H9          -0.5430    -0.0020     3.3430 ha         1 1FN       0.154000
     43 H10          1.9210    -0.0000     3.3440 ha         1 1FN       0.168000
     44 HN15         3.9770     0.4560     0.4680 hn         1 1FN       0.370500
     45 H28         -7.2950    -0.5820     1.5150 h4         1 1FN       0.168000
     46 HN29        -6.7600    -3.0350     0.9780 hn         1 1FN       0.304700
     47 H30          9.3960    -0.7900    -0.3190 ha         1 1FN       0.150500
     48 H31         10.6460     0.3990    -2.0780 ha         1 1FN       0.156000
     49 O7          -2.0540    -0.0020     1.2030 os         1 1FN      -0.226200
     50 H34          7.5350     2.8880     0.8380 ha         1 1FN       0.150500
@<TRIPOS>BOND
     1     1     9 ar  
     2     1    19 ar  
     3     1    22 1   
     4     2     3 1   
     5     2     4 1   
     6     2     7 2   
     7     3    23 1   
     8     3    24 2   
     9     4    25 1   
    10     4    26 2   
    11     5     6 2   
    12     5    25 1   
    13     6     7 1   
    14     8     9 ar  
    15     8    21 ar  
    16     8    23 1   
    17    10    12 ar  
    18    10    27 ar  
    19    11    13 1   
    20    11    28 2   
    21    12    32 ar  
    22    13    14 ar  
    23    13    18 ar  
    24    14    15 ar  
    25    14    29 1   
    26    15    16 ar  
    27    16    17 ar  
    28    17    18 ar  
    29    18    49 1   
    30    49    19 1   
    31    19    20 ar  
    32    20    21 ar  
    33    25    27 1   
    34    27    30 ar  
    35    28    29 1   
    36    30    31 ar  
    37    31    32 ar  
    38    32    33 1   
    39     5    34 1   
    40     6    35 1   
    41     7    36 1   
    42     9    37 1   
    43    10    50 1   
    44    11    38 1   
    45    12    39 1   
    46    16    40 1   
    47    17    41 1   
    48    20    42 1   
    49    21    43 1   
    50    23    44 1   
    51    28    45 1   
    52    29    46 1   
    53    30    47 1   
    54    31    48 1   
@<TRIPOS>SUBSTRUCTURE
     1 1FN         1 TEMP              0 ****  ****    0 ROOT
