@<TRIPOS>MOLECULE
1FN
   50    54     1     0     0
SMALL
bcc


@<TRIPOS>ATOM
      1 C13         -0.0810    -0.0480     0.2070 ca         1 1FN       0.159900
      2 C18          5.7580    -0.2980     0.9530 cc         1 1FN      -0.291400
      3 C17          4.3070    -0.3140     0.6030 c          1 1FN       0.696300
      4 C20          6.2430    -0.6730     2.2830 c          1 1FN       0.710700
      5 C22          8.5000    -0.2720     1.4530 cc         1 1FN       0.040600
      6 C23          8.0350     0.0680     0.2060 cd         1 1FN      -0.261000
      7 C24          6.6380     0.0500    -0.0420 cd         1 1FN       0.042000
      8 C11          1.9830    -0.2070     1.4950 ca         1 1FN       0.101600
      9 C12          1.3240    -0.0420     0.2620 ca         1 1FN      -0.194000
     10 C34          9.2040    -0.0950     4.3120 ca         1 1FN      -0.093500
     11 C27         -5.2720     0.0790     1.4210 cc         1 1FN      -0.149200
     12 C33          9.7790    -0.3980     5.5390 ca         1 1FN      -0.158000
     13 C1          -4.3610    -1.0250     1.5620 ca         1 1FN      -0.220100
     14 C2          -5.1720    -2.2180     1.7730 ca         1 1FN       0.439800
     15 N3          -4.6730    -3.4820     1.9500 nb         1 1FN      -0.692000
     16 C4          -3.3400    -3.5640     1.9170 ca         1 1FN       0.443200
     17 C5          -2.4470    -2.4800     1.7210 ca         1 1FN      -0.348300
     18 C6          -2.9660    -1.2010     1.5420 ca         1 1FN       0.204100
     19 C8          -0.8300    -0.2080     1.3920 ca         1 1FN       0.011100
     20 C9          -0.1760    -0.3700     2.6170 ca         1 1FN      -0.090000
     21 C10          1.2080    -0.3740     2.6740 ca         1 1FN      -0.189000
     22 F14         -0.7010     0.1130    -0.9820 f          1 1FN      -0.120900
     23 N15          3.3800    -0.1820     1.6250 ns         1 1FN      -0.456100
     24 O19          3.9770    -0.3960    -0.5980 o          1 1FN      -0.603100
     25 N21          7.6540    -0.6320     2.4810 n          1 1FN      -0.245200
     26 O25          5.5220    -1.0300     3.2370 o          1 1FN      -0.648500
     27 C26          8.2220    -0.9410     3.7550 ca         1 1FN       0.001600
     28 C28         -6.5600    -0.4370     1.5420 cd         1 1FN      -0.121100
     29 N29         -6.5150    -1.8180     1.7580 na         1 1FN      -0.286100
     30 C30          7.8140    -2.0880     4.4660 ca         1 1FN      -0.093500
     31 C31          8.3840    -2.3900     5.6960 ca         1 1FN      -0.158000
     32 C32          9.3730    -1.5490     6.2380 ca         1 1FN       0.135900
     33 F35          9.9340    -1.8460     7.4330 f          1 1FN      -0.131900
     34 H22          9.5830    -0.2790     1.6870 h4         1 1FN       0.166000
     35 H23          8.7350     0.3440    -0.5930 ha         1 1FN       0.164000
     36 H24          6.2600     0.3110    -1.0480 ha         1 1FN       0.174000
     37 H12          1.8840     0.0880    -0.6790 ha         1 1FN       0.191000
     38 H27         -4.9910     1.1140     1.2480 ha         1 1FN       0.167000
     39 H33         10.5460     0.2610     5.9730 ha         1 1FN       0.157500
     40 H4          -2.9310    -4.5820     2.0560 h4         1 1FN       0.021100
     41 H5          -1.3650    -2.6600     1.7080 ha         1 1FN       0.154000
     42 H9          -0.7730    -0.4960     3.5340 ha         1 1FN       0.155000
     43 H10          1.7020    -0.5060     3.6500 ha         1 1FN       0.145000
     44 HN15         3.7190    -0.2330     2.5660 hn         1 1FN       0.348500
     45 H28         -7.5210     0.0780     1.4920 h4         1 1FN       0.168000
     46 HN29        -7.2880    -2.4200     1.8620 hn         1 1FN       0.308700
     47 H30          7.0210    -2.7400     4.0620 ha         1 1FN       0.155500
     48 H31          8.0630    -3.2830     6.2530 ha         1 1FN       0.157500
     49 O7          -2.2140    -0.0560     1.3310 os         1 1FN      -0.226200
     50 H34          9.5200     0.8200     3.7850 ha         1 1FN       0.155500
@<TRIPOS>BOND
     1     1     9 ar  
     2     1    19 ar  
     3     1    22 1   
     4     2     3 1   
     5     2     4 1   
     6     2     7 2   
     7     3    23 1   
     8     3    24 2   
     9     4    25 1   
    10     4    26 2   
    11     5     6 2   
    12     5    25 1   
    13     5    34 1   
    14     6     7 1   
    15     6    35 1   
    16     7    36 1   
    17     8     9 ar  
    18     8    21 ar  
    19     8    23 1   
    20     9    37 1   
    21    10    12 ar  
    22    10    27 ar  
    23    10    50 1   
    24    11    13 1   
    25    11    28 2   
    26    11    38 1   
    27    12    32 ar  
    28    12    39 1   
    29    13    14 ar  
    30    13    18 ar  
    31    14    15 ar  
    32    14    29 1   
    33    15    16 ar  
    34    16    17 ar  
    35    16    40 1   
    36    17    18 ar  
    37    17    41 1   
    38    18    49 1   
    39    19    20 ar  
    40    19    49 1   
    41    20    21 ar  
    42    20    42 1   
    43    21    43 1   
    44    23    44 1   
    45    25    27 1   
    46    27    30 ar  
    47    28    29 1   
    48    28    45 1   
    49    29    46 1   
    50    30    31 ar  
    51    30    47 1   
    52    31    32 ar  
    53    31    48 1   
    54    32    33 1   
@<TRIPOS>SUBSTRUCTURE
     1 1FN         1 TEMP              0 ****  ****    0 ROOT
