@<TRIPOS>MOLECULE
1FO
   35    36     1     0     0
SMALL
bcc


@<TRIPOS>ATOM
      1 OAA          0.4600     1.0900     0.1100 o          1 1FO      -0.622100
      2 OAB          3.2120     0.8430    -4.3280 o          1 1FO      -0.797800
      3 OAC          2.1760     4.3770     6.1150 o          1 1FO      -0.565100
      4 OAD          3.9590    -0.9250    -3.1540 o          1 1FO      -0.797800
      5 OAE          1.5480     1.6260    -2.4360 oh         1 1FO      -0.497100
      6 CAG          1.4450    -0.7530     1.2520 ce         1 1FO      -0.211200
      7 CAH          1.5820    -0.4740     2.5520 cf         1 1FO      -0.077200
      8 CAI          2.1770    -0.1500    -1.0040 ce         1 1FO      -0.395200
      9 CAJ          1.9960     0.4970     8.7650 ca         1 1FO      -0.121000
     10 CAK          3.0720     0.8520     9.5740 ca         1 1FO      -0.159000
     11 CAL          1.7020     1.2260     7.6140 ca         1 1FO      -0.112000
     12 CAM          1.3990     3.0120     3.6390 cd         1 1FO      -0.071300
     13 CAN          3.5630     2.7110     8.0690 ca         1 1FO      -0.124000
     14 CAO          2.0180     1.0130     4.5640 cc         1 1FO      -0.153000
     15 NAP          1.2400     2.0360     2.6880 na         1 1FO      -0.133100
     16 CAQ          1.3030     0.1690     0.0960 c          1 1FO       0.591500
     17 CAR          3.2460     0.0920    -3.3110 c          1 1FO       0.882800
     18 CAS          2.2880     0.5190    -2.1830 cf         1 1FO       0.130900
     19 CAT          2.1740     3.1360     6.0500 c          1 1FO       0.622300
     20 CAU          3.8590     1.9640     9.2230 ca         1 1FO       0.108900
     21 CAV          1.6180     0.7980     3.2300 cd         1 1FO      -0.091100
     22 CAW          2.4870     2.3300     7.2630 ca         1 1FO      -0.116600
     23 CAX          1.8790     2.4150     4.8340 cc         1 1FO      -0.277600
     24 HAG          1.4600    -1.8140     0.9380 ha         1 1FO       0.136000
     25 HAH          1.7150    -1.3170     3.2600 ha         1 1FO       0.121000
     26 HAI          2.8360    -1.0280    -0.8890 ha         1 1FO       0.158000
     27 HAJ          1.3740    -0.3680     9.0370 ha         1 1FO       0.134000
     28 HAK          3.3130     0.2770    10.4790 ha         1 1FO       0.142000
     29 HAL          0.8530     0.9380     6.9750 ha         1 1FO       0.152000
     30 HAM          1.1750     4.0640     3.4490 h4         1 1FO       0.181000
     31 HAN          4.1680     3.5910     7.8060 ha         1 1FO       0.162000
     32 HAO          2.3850     0.2570     5.2520 ha         1 1FO       0.151000
     33 HNAP         0.9020     2.1640     1.7580 hn         1 1FO       0.344700
     34 H12          1.7890     1.9350    -3.3360 ho         1 1FO       0.451000
     35 FAF          4.9070     2.3200    10.0060 f          1 1FO      -0.146900
@<TRIPOS>BOND
     1     1    16 2   
     2     2    17 1   
     3     3    19 2   
     4     4    17 1   
     5     5    18 1   
     6     5    34 1   
     7     6     7 2   
     8     6    16 1   
     9     6    24 1   
    10     7    21 1   
    11     7    25 1   
    12     8    16 1   
    13     8    18 2   
    14     8    26 1   
    15     9    10 ar  
    16     9    11 ar  
    17     9    27 1   
    18    10    20 ar  
    19    10    28 1   
    20    11    22 ar  
    21    11    29 1   
    22    12    15 1   
    23    12    23 2   
    24    12    30 1   
    25    13    20 ar  
    26    13    22 ar  
    27    13    31 1   
    28    14    21 2   
    29    14    23 1   
    30    14    32 1   
    31    15    21 1   
    32    15    33 1   
    33    17    18 1   
    34    19    22 1   
    35    19    23 1   
    36    20    35 1   
@<TRIPOS>SUBSTRUCTURE
     1 1FO         1 TEMP              0 ****  ****    0 ROOT
