@<TRIPOS>MOLECULE
molecule
   35    36     1     0     0
SMALL
bcc


@<TRIPOS>ATOM
      1 OAA          0.0000     0.0000     0.0000 o          1 1FO      -0.632100
      2 OAB          3.1210    -0.4990    -3.7280 o          1 1FO      -0.775300
      3 OAC          1.2570    -0.1190     7.8050 o          1 1FO      -0.536100
      4 OAD          1.2990     0.0210    -4.8830 o          1 1FO      -0.775300
      5 OAE         -0.0050     0.5650    -2.4310 oh         1 1FO      -0.505100
      6 CAG          1.9270     0.0000     1.2250 ce         1 1FO      -0.214200
      7 CAH          1.2480    -0.0010     2.4010 cf         1 1FO      -0.070200
      8 CAI          1.9550     0.0020    -1.2720 cf         1 1FO      -0.556200
      9 CAJ          4.7480    -0.3710    10.1470 ca         1 1FO      -0.117000
     10 CAK          5.8330     0.3530     9.6860 ca         1 1FO      -0.155000
     11 CAL          3.6140    -0.4930     9.3710 ca         1 1FO      -0.095000
     12 CAM          3.6380    -0.0010     5.0780 cc         1 1FO      -0.127300
     13 CAN          4.6550     0.8550     7.6580 ca         1 1FO      -0.146000
     14 CAO          1.3950    -0.0030     4.8870 cc         1 1FO      -0.122000
     15 NAP          3.3280    -0.0000     3.7700 na         1 1FO      -0.127100
     16 CAQ          1.2200     0.0000     0.0000 c          1 1FO       0.561500
     17 CAR          1.9650    -0.1300    -3.7210 c          1 1FO       0.826800
     18 CAS          1.2870     0.1530    -2.4380 ce         1 1FO       0.326900
     19 CAT          2.3490    -0.0100     7.2800 c          1 1FO       0.619300
     20 CAU          5.7870     0.9650     8.4430 ca         1 1FO       0.118900
     21 CAV          1.9560    -0.0010     3.6270 cd         1 1FO      -0.097100
     22 CAW          3.5610     0.1170     8.1160 ca         1 1FO      -0.126600
     23 CAX          2.4630    -0.0030     5.8110 cd         1 1FO      -0.263600
     24 HAG          3.0110     0.0010     1.2250 ha         1 1FO       0.125000
     25 HAH          0.1650    -0.0020     2.4010 ha         1 1FO       0.169000
     26 HAI          1.7640     0.9500    -0.7840 ha         1 1FO       0.162000
     27 HAJ          4.7890    -0.8460    11.1200 ha         1 1FO       0.136000
     28 HAK          6.7210     0.4450    10.3000 ha         1 1FO       0.141000
     29 HAL          2.7670    -1.0630     9.7330 ha         1 1FO       0.152000
     30 HAM          4.6400    -0.0000     5.4890 h4         1 1FO       0.171000
     31 HAN          4.6200     1.3310     6.6850 ha         1 1FO       0.159000
     32 HAO          0.3380    -0.0040     5.1230 ha         1 1FO       0.168000
     33 HNAP         3.9890     0.0010     3.0180 hn         1 1FO       0.310700
     34 H12         -0.0930     1.3330    -2.9710 ho         1 1FO       0.434000
     35 FAF          6.8500     1.6700     7.9990 f          1 1FO      -0.143900
@<TRIPOS>BOND
     1     1    16 2
     2     2    17 1
     3     5    18 1
     4     6     7 2
     5     6    24 1
     6     7    21 1
     7     7    25 1
     8     8    16 1
     9     8    26 1
    10     9    10 ar
    11     9    27 1
    12    10    20 ar
    13    10    28 1
    14    11     9 ar
    15    11    29 1
    16    12    23 2
    17    12    30 1
    18    13    20 ar
    19    13    31 1
    20    14    23 1
    21    14    32 1
    22    15    12 1
    23    15    33 1
    24    16     6 1
    25    17     4 1
    26    17    18 1
    27    18     8 2
    28    19     3 2
    29    19    22 1
    30    20    35 1
    31    21    14 2
    32    21    15 1
    33    22    11 ar
    34    22    13 ar
    35    23    19 1
    36     5    34 1
@<TRIPOS>SUBSTRUCTURE
     1 1FO         1 TEMP              0 ****  ****    0 ROOT
