@<TRIPOS>MOLECULE
1FO
   35    33     1     0     0
SMALL
bcc


@<TRIPOS>ATOM
      1 OAA        -1.0910    2.1700    5.2790 o         1 1FO     -0.349000
      2 OAB         3.3000   -1.6040   -4.3570 o         1 1FO     -0.216000
      3 OAC         5.8150   -0.9760    5.9430 os        1 1FO     -0.093000
      4 OAD         4.8160   -2.3690   -2.6890 o         1 1FO     -0.216000
      5 OAE         3.4360   -1.0120   -1.1860 oh        1 1FO     -0.203000
      6 CAG        -0.2460    2.0050    3.0210 c2        1 1FO     -0.194000
      7 CAH         0.9750    1.5770    3.2090 c1        1 1FO     -0.336000
      8 CAI         1.9640    0.3780    0.3220 c1        1 1FO     -0.211000
      9 CAJ         5.8780   -1.3720    7.3210 c1        1 1FO     -0.116000
     10 CAK         1.8750   -0.3870    9.1750 c2        1 1FO     -0.242000
     11 CAL         4.7580   -0.8490    7.9350 c2        1 1FO     -0.435000
     12 CAM         5.0490   -0.6530    3.2880 c2        1 1FO     -0.059000
     13 CAN         2.8080    0.5770    7.0830 c2        1 1FO      0.003000
     14 CAO         3.2080    0.7720    4.0700 c1        1 1FO     -0.526000
     15 NAP         4.5580   -0.9130    2.1440 n2        1 1FO     -0.252000
     16 CAQ        -1.2290    2.2950    4.0550 c2        1 1FO      0.206000
     17 CAR         4.0480   -1.9760   -3.5090 c1        1 1FO      0.433000
     18 CAS         2.6760   -0.2880   -0.3690 c1        1 1FO     -0.122000
     19 CAT         4.7300   -0.2400    5.6970 c2        1 1FO      0.196000
     20 CAU         2.0340    0.6480    8.3250 c2        1 1FO      0.070000
     21 CAV         2.1060    1.1680    3.6980 c1        1 1FO      0.090000
     22 CAW         3.9610   -0.1090    6.9500 c2        1 1FO     -0.119000
     23 CAX         4.5220    0.3290    4.3310 c3        1 1FO      0.084000
     24 HAG         1.3660    0.9550    0.9960 ha        1 1FO      0.281000
     25 HAH        -0.6220    2.1800    1.9950 ha        1 1FO      0.082000
     26 HAI        -2.2090    2.6710    3.6590 h4        1 1FO      0.029000
     27 HAJ         4.4900   -0.9260    8.9820 ha        1 1FO      0.147000
     28 HAK         1.2430   -0.3140   10.0670 ha        1 1FO      0.136000
     29 HAL         2.3670   -1.3500    8.9920 ha        1 1FO      0.136000
     30 HAM         5.9860   -1.1700    3.5870 h4        1 1FO      0.147000
     31 HAN         2.3730    1.1310    6.2210 ha        1 1FO      0.206000
     32 HAO         5.2210    1.2320    4.2940 hc        1 1FO      0.137000
     33 HNAP        3.7040   -0.4400    1.9080 hn        1 1FO      0.168000
     34 H12         4.1260   -1.4140   -0.6200 ho        1 1FO      0.249000
     35 FAF         1.4130    1.8380    8.5500 f         1 1FO     -0.110000
@<TRIPOS>BOND
     1    1   16 1   
     2    2   17 1   
     3    3    9 1   
     4    3   19 1   
     5    4   17 1   
     6    5   18 1   
     7    5   34 1   
     8    6    7 1   
     9    6   16 1   
    10    6   25 1   
    11    7   21 1   
    12    8   18 1   
    13    8   24 1   
    14    9   11 1   
    15   10   20 1   
    16   10   28 1   
    17   10   29 1   
    18   11   22 1   
    19   11   27 1   
    20   12   15 1   
    21   12   23 1   
    22   12   30 1   
    23   13   20 1   
    24   13   22 1   
    25   13   31 1   
    26   14   21 1   
    27   14   23 1   
    28   15   33 1   
    29   16   26 1   
    30   19   22 1   
    31   19   23 1   
    32   20   35 1   
    33   23   32 1   
@<TRIPOS>SUBSTRUCTURE
     1 1FO         1 TEMP              0 ****  ****    0 ROOT
