@<TRIPOS>MOLECULE
1FP
   18    18     1     0     0
SMALL
bcc


@<TRIPOS>ATOM
      1 OAA         -0.0360    -0.3300     0.0400 o          1 1FP      -0.602100
      2 CAB          1.1960    -0.1770     0.0080 c          1 1FP       0.655900
      3 CAC          1.9890    -0.9510     3.3870 c3         1 1FP       0.139800
      4 CAD          3.9980    -0.9850     2.0260 c3         1 1FP       0.139800
      5 CAE          1.3670     0.1120     2.4540 c3         1 1FP       0.086000
      6 CAF          3.3880     0.0880     1.0940 c3         1 1FP       0.086000
      7 NAG          3.4380    -0.9470     3.3620 n7         1 1FP      -0.819200
      8 NAH          1.9460     0.1210     1.1300 n          1 1FP      -0.478800
      9 HAB          1.7820    -0.2170    -0.9400 h5         1 1FP       0.028200
     10 HACA         1.6680    -0.7160     4.4400 h1         1 1FP       0.036950
     11 HAD          5.1010    -0.7790     2.1130 h1         1 1FP       0.036950
     12 HADA         3.8730    -1.9950     1.5360 h1         1 1FP       0.036950
     13 HAE          1.5250     1.1320     2.9080 h1         1 1FP       0.061950
     14 HAEA         0.2610    -0.0820     2.3780 h1         1 1FP       0.061950
     15 HAF          3.7670     1.1010     1.4130 h1         1 1FP       0.061950
     16 HAFA         3.7500    -0.1110     0.0480 h1         1 1FP       0.061950
     17 HNAG         3.7950    -1.7110     3.9060 hn         1 1FP       0.367800
     18 HAC          1.5600    -1.9590     3.1130 h1         1 1FP       0.036950
@<TRIPOS>BOND
     1     1     2 2   
     2     2     8 1   
     3     2     9 1   
     4     3     5 1   
     5     3     7 1   
     6     3    10 1   
     7     3    18 1   
     8     4     6 1   
     9     4     7 1   
    10     4    11 1   
    11     4    12 1   
    12     5     8 1   
    13     5    13 1   
    14     5    14 1   
    15     6     8 1   
    16     6    15 1   
    17     6    16 1   
    18     7    17 1   
@<TRIPOS>SUBSTRUCTURE
     1 1FP         1 TEMP              0 ****  ****    0 ROOT
