@<TRIPOS>MOLECULE
1FP
   18    18     1     0     0
SMALL
bcc


@<TRIPOS>ATOM
      1 OAA          0.0000     0.0000     0.0000 o          1 1FP      -0.653100
      2 CAB          1.2130     0.0000     0.0000 c          1 1FP       0.630900
      3 CAC          3.8300    -1.1310     2.1100 c3         1 1FP       0.129300
      4 CAD          1.7290    -1.1290     3.3230 c3         1 1FP       0.129300
      5 CAE          3.3570     0.0000     1.1910 c3         1 1FP       0.058500
      6 CAF          1.1710     0.0020     2.4530 c3         1 1FP       0.058500
      7 NAG          3.1880    -0.9900     3.4240 n7         1 1FP      -0.579200
      8 NAH          1.8870     0.0010     1.1680 n          1 1FP      -0.188800
      9 HAB          1.7550     0.0310    -0.9380 h5         1 1FP      -0.018800
     10 HACA         4.9050    -1.0740     2.2260 h1         1 1FP       0.012950
     11 HAD          1.2920    -1.0720     4.3120 h1         1 1FP       0.012950
     12 HADA         1.4890    -2.0840     2.8700 h1         1 1FP       0.012950
     13 HAE          3.7140     0.9500     1.5700 h1         1 1FP       0.031450
     14 HAEA         3.7350    -0.1640     0.1890 h1         1 1FP       0.031450
     15 HAF          1.3220     0.9520     2.9510 h1         1 1FP       0.031450
     16 HAFA         0.1140    -0.1600     2.2800 h1         1 1FP       0.031450
     17 HNAG         3.5470    -1.6870     4.0470 hn         1 1FP       0.255800
     18 HAC          3.5570    -2.0850     1.6760 h1         1 1FP       0.012950
@<TRIPOS>BOND
     1     1     2 2   
     2     2     8 1   
     3     2     9 1   
     4     3     5 1   
     5     3     7 1   
     6     3    10 1   
     7     3    18 1   
     8     4     6 1   
     9     4     7 1   
    10     4    11 1   
    11     4    12 1   
    12     5     8 1   
    13     5    13 1   
    14     5    14 1   
    15     6     8 1   
    16     6    15 1   
    17     6    16 1   
    18     7    17 1   
@<TRIPOS>SUBSTRUCTURE
     1 1FP         1 TEMP              0 ****  ****    0 ROOT
