@<TRIPOS>MOLECULE
molecule
   35    36     1     0     0
SMALL
bcc


@<TRIPOS>ATOM
      1 OAA          0.0000     0.0000     0.0000 o          1 1FQ      -0.632100
      2 OAB          1.2770    -0.0830    -4.8780 o          1 1FQ      -0.775800
      3 OAC          1.2620     0.1250     7.8060 o          1 1FQ      -0.539100
      4 OAD          3.0890    -0.6200    -3.7150 o          1 1FQ      -0.775800
      5 OAE          0.0060     0.5850    -2.4390 oh         1 1FQ      -0.503100
      6 CAG          1.9270     0.0000     1.2250 ce         1 1FQ      -0.214200
      7 CAH          1.2480     0.0000     2.4020 cf         1 1FQ      -0.070200
      8 CAI          1.9530     0.0000    -1.2720 cf         1 1FQ      -0.552200
      9 CAJ          5.7660    -1.0690     8.4210 ca         1 1FQ      -0.182000
     10 CAK          4.7510     0.2530    10.1540 ca         1 1FQ      -0.182000
     11 CAL          4.6420    -0.9170     7.6380 ca         1 1FQ      -0.067500
     12 CAM          3.6210     0.4110     9.3810 ca         1 1FQ      -0.067500
     13 CAN          3.6380    -0.0000     5.0770 cd         1 1FQ      -0.130300
     14 CAO          1.3950     0.0010     4.8880 cc         1 1FQ      -0.122000
     15 NAP          3.3280     0.0000     3.7700 na         1 1FQ      -0.127100
     16 CAQ          1.2200     0.0000     0.0000 c          1 1FQ       0.568500
     17 CAR          1.9440    -0.2150    -3.7150 c          1 1FQ       0.826800
     18 CAS          1.2830     0.1320    -2.4400 ce         1 1FQ       0.327900
     19 CAT          2.3500    -0.0090     7.2800 c          1 1FQ       0.620300
     20 CAU          5.8230    -0.4850     9.6770 ca         1 1FQ       0.144900
     21 CAV          1.9560     0.0000     3.6280 cd         1 1FQ      -0.098100
     22 CAW          3.5580    -0.1750     8.1140 ca         1 1FQ      -0.168600
     23 CAX          2.4630    -0.0060     5.8110 cc         1 1FQ      -0.261600
     24 HAG          3.0100    -0.0000     1.2250 ha         1 1FQ       0.124000
     25 HAH          0.1650     0.0010     2.4020 ha         1 1FQ       0.170000
     26 HAI          1.7830     0.9600    -0.7990 ha         1 1FQ       0.152000
     27 HAJ          6.6070    -1.6440     8.0530 ha         1 1FQ       0.144500
     28 HAK          4.8020     0.7070    11.1370 ha         1 1FQ       0.144500
     29 HAL          4.5980    -1.3740     6.6570 ha         1 1FQ       0.153500
     30 HAM          2.7840     0.9880     9.7550 ha         1 1FQ       0.153500
     31 HAN          4.6400    -0.0020     5.4890 h4         1 1FQ       0.169000
     32 HAO          0.3380    -0.0010     5.1240 ha         1 1FQ       0.168000
     33 HNAP         3.9880     0.0040     3.0180 hn         1 1FQ       0.310700
     34 H12         -0.0570     1.3490    -2.9880 ho         1 1FQ       0.433000
     35 FAF          6.9280    -0.6370    10.4400 f          1 1FQ      -0.143900
@<TRIPOS>BOND
     1     2    17 1
     2     4    17 1
     3    35    20 1
     4     6     7 2
     5     6    24 1
     6     7    21 1
     7     7    25 1
     8     8    16 1
     9     8    26 1
    10     9    20 ar
    11     9    11 ar
    12     9    27 1
    13    10    12 ar
    14    10    28 1
    15    11    22 ar
    16    11    29 1
    17    12    30 1
    18    13    31 1
    19    14    21 2
    20    14    23 1
    21    14    32 1
    22    15    13 1
    23    15    33 1
    24    16     1 2
    25    16     6 1
    26    17    18 1
    27    18     5 1
    28    18     8 2
    29    19     3 2
    30    20    10 ar
    31    21    15 1
    32    22    12 ar
    33    22    19 1
    34    23    13 2
    35    23    19 1
    36     5    34 1
@<TRIPOS>SUBSTRUCTURE
     1 1FQ         1 TEMP              0 ****  ****    0 ROOT
