@<TRIPOS>MOLECULE
1FQ
   35    30     1     0     0
SMALL
bcc


@<TRIPOS>ATOM
      1 OAA         4.2100    3.3480    1.7570 o         1 1FQ     -0.619100
      2 OAB         0.9330    1.0930   -1.5690 o         1 1FQ     -0.798300
      3 OAC         2.7980   -1.1130    7.9690 o         1 1FQ     -0.549100
      4 OAD         2.9180    0.7060   -2.5110 o         1 1FQ     -0.798300
      5 OAE         2.9860    3.3520   -0.8270 oh        1 1FQ     -0.474100
      6 CAG         4.3050    1.2770    2.8280 cg        1 1FQ     -0.070200
      7 CAH         4.6000    0.5570    3.7400 ch        1 1FQ     -0.176300
      8 CAI         3.2970    1.4520    0.6290 ce        1 1FQ     -0.457200
      9 CAJ         5.3320    0.0400    9.7630 c1        1 1FQ     -0.141500
     10 CAK         0.6490   -0.3610   11.8940 c1        1 1FQ     -0.168500
     11 CAL         0.1880   -3.0850    6.8660 c1        1 1FQ     -0.056500
     12 CAM         1.2300   -0.4940   10.8570 c1        1 1FQ     -0.168500
     13 CAN         0.6200   -0.8910   -4.0460 c1        1 1FQ      0.235300
     14 CAO         4.1680   -1.1770    5.3370 c1        1 1FQ      0.052200
     15 NAP         0.1130   -1.5900   -4.8230 n1        1 1FQ     -0.500800
     16 CAQ         3.9470    2.1260    1.7180 c         1 1FQ      0.608500
     17 CAR         2.1820    1.2270   -1.6340 c         1 1FQ      0.915800
     18 CAS         2.8680    2.0440   -0.5260 cf        1 1FQ      0.194900
     19 CAT         2.4940   -1.8330    7.0080 c         1 1FQ      0.626500
     20 CAU         6.2820    0.3060   10.4360 c1        1 1FQ     -0.058900
     21 CAV         4.9650   -0.2920    4.7940 cf        1 1FQ     -0.007800
     22 CAW         1.2420   -2.5220    6.9390 cg        1 1FQ     -0.196200
     23 CAX         3.3790   -2.0760    5.8520 ce        1 1FQ     -0.266300
     24 HAG         2.1340   -1.6630   -0.5280 ha        1 1FQ     -0.000500
     25 HAH         2.0330   -1.1480   -0.9580 ha        1 1FQ     -0.000500
     26 HAI         3.1270    0.3680    0.7310 ha        1 1FQ      0.157000
     27 HAJ        -0.7470   -3.5840    6.7960 ha        1 1FQ      0.170500
     28 HAK         0.1350   -0.2410   12.8130 ha        1 1FQ      0.167500
     29 HAL         4.4840   -0.1970    9.1640 ha        1 1FQ      0.212500
     30 HAM         1.7470   -0.6120    9.9330 ha        1 1FQ      0.167500
     31 HAN         1.0970   -0.2350   -3.3170 ha        1 1FQ      0.251500
     32 HAO         3.3170   -3.0920    5.4190 ha        1 1FQ      0.162000
     33 HNAP        6.0060   -0.1870    5.1630 ha        1 1FQ      0.163000
     34 H12         3.4240    3.8320   -0.1000 ho        1 1FQ      0.435000
     35 FAF         7.3160    0.5960   11.1680 f         1 1FQ     -0.013100
@<TRIPOS>BOND
     1    1   16 2   
     2    2   17 1   
     3    3   19 2   
     4    4   17 1   
     5    5   18 1   
     6    5   34 1   
     7    6    7 3   
     8    6   16 1   
     9    7   21 1   
    10    8   16 1   
    11    8   18 2   
    12    8   26 1   
    13    9   20 3   
    14    9   29 1   
    15   10   12 3   
    16   10   28 1   
    17   11   22 3   
    18   11   27 1   
    19   12   30 1   
    20   13   15 3   
    21   13   31 1   
    22   14   21 2   
    23   14   23 2   
    24   17   18 1   
    25   19   22 1   
    26   19   23 1   
    27   20   35 1   
    28   21   33 1   
    29   23   32 1   
    30   24   25 1   
@<TRIPOS>SUBSTRUCTURE
     1 1FQ         1 TEMP              0 ****  ****    0 ROOT
