@<TRIPOS>MOLECULE
1FQ
   35    36     1     0     0
SMALL
bcc


@<TRIPOS>ATOM
      1 OAA          2.6640    -1.6720     0.1160 o          1 1FQ      -0.343000
      2 OAB          0.1240     0.3390    -4.0340 o          1 1FQ      -0.537500
      3 OAC          3.2650    -0.7930     7.7430 o          1 1FQ      -0.327000
      4 OAD          0.8310     2.1590    -2.9220 o          1 1FQ      -0.537500
      5 OAE          1.2560    -1.3560    -2.3580 oh         1 1FQ      -0.258000
      6 CAG          3.6440     0.3230     0.9680 c3         1 1FQ      -0.238000
      7 CAH          2.8640     0.9760     1.9940 c1         1 1FQ      -0.073000
      8 CAI          2.0740     0.3870    -0.9830 c2         1 1FQ      -0.362000
      9 CAJ          7.2150    -2.1980     5.5780 ca         1 1FQ      -0.177000
     10 CAK          6.1010    -3.8720     6.9630 ca         1 1FQ      -0.177000
     11 CAL          6.1080    -1.3660     5.7100 ca         1 1FQ      -0.066500
     12 CAM          5.0080    -3.0220     7.0910 ca         1 1FQ      -0.066500
     13 CAN          2.3580     0.8730     5.5380 c2         1 1FQ      -0.022000
     14 CAO          3.7040    -0.2990     4.1050 c2         1 1FQ      -0.052000
     15 NAP          2.1340     1.3440     4.2830 na         1 1FQ      -0.109000
     16 CAQ          2.7290    -0.4400    -0.0040 c2         1 1FQ       0.317000
     17 CAR          0.7280     0.9220    -3.0860 c2         1 1FQ       0.334000
     18 CAS          1.3860    -0.0330    -2.0760 c2         1 1FQ       0.093000
     19 CAT          3.8200    -0.8860     6.6350 c2         1 1FQ       0.344000
     20 CAU          7.2120    -3.4580     6.2030 ca         1 1FQ       0.103000
     21 CAV          2.9500     0.6410     3.3540 c2         1 1FQ      -0.146000
     22 CAW          5.0000    -1.7710     6.4610 ca         1 1FQ      -0.144000
     23 CAX          3.3500    -0.1550     5.4760 c2         1 1FQ      -0.276000
     24 HAG          4.1640     1.1310     0.3780 hc         1 1FQ       0.098500
     25 HAH          4.4240    -0.3930     1.3490 hc         1 1FQ       0.098500
     26 HAI          2.1260     1.4790    -0.8270 ha         1 1FQ       0.167000
     27 HAJ          8.0880    -1.8840     4.9880 ha         1 1FQ       0.149000
     28 HAK          6.1090    -4.8580     7.4470 ha         1 1FQ       0.149000
     29 HAL          6.1060    -0.3780     5.2210 ha         1 1FQ       0.151500
     30 HAM          4.1390    -3.3260     7.6960 ha         1 1FQ       0.151500
     31 HAN          1.8430     1.2440     6.4290 h4         1 1FQ       0.182000
     32 HAO          4.4120    -1.0130     3.6840 ha         1 1FQ       0.168000
     33 HNAP         1.4910     2.0450     4.0040 hn         1 1FQ       0.270000
     34 H12          0.7300    -1.4250    -3.1830 ho         1 1FQ       0.248000
     35 FAF          8.2840    -4.2760     6.0770 f          1 1FQ      -0.109000
@<TRIPOS>BOND
     1     1    16 1   
     2     2    17 1   
     3     3    19 1   
     4     4    17 1   
     5     5    18 1   
     6     5    34 1   
     7     6     7 1   
     8     6    16 1   
     9     6    24 1   
    10     6    25 1   
    11     7    21 1   
    12     8    16 1   
    13     8    18 1   
    14     8    26 1   
    15     9    11 1   
    16     9    20 1   
    17     9    27 1   
    18    10    12 1   
    19    10    20 1   
    20    10    28 1   
    21    11    22 1   
    22    11    29 1   
    23    12    22 1   
    24    12    30 1   
    25    13    15 1   
    26    13    23 1   
    27    13    31 1   
    28    14    21 1   
    29    14    23 1   
    30    14    32 1   
    31    15    21 1   
    32    15    33 1   
    33    17    18 1   
    34    19    22 1   
    35    19    23 1   
    36    20    35 1   
@<TRIPOS>SUBSTRUCTURE
     1 1FQ         1 TEMP              0 ****  ****    0 ROOT
