@<TRIPOS>MOLECULE
1FR
   52    52     1     0     0
SMALL
bcc


@<TRIPOS>ATOM
      1 C28         0.8270    1.1810    1.3880 c3        1 1FR     -0.161000
      2 C27         1.2610    1.0250    2.8060 c2        1 1FR      0.075000
      3 C26         0.6210    0.1860    3.5920 c1        1 1FR     -0.140000
      4 C24        -0.9940   -1.6170    4.4110 c2        1 1FR     -0.105000
      5 C23        -0.6810    1.1770    1.1830 c3        1 1FR     -0.159000
      6 C22        -1.1310    0.3530   -0.0410 c3        1 1FR     -0.006000
      7 C15        -7.4570   -1.7040   -1.9570 c2        1 1FR     -0.039000
      8 C12        -5.3620   -0.7660   -3.8920 c2        1 1FR     -0.299000
      9 C13        -6.7870   -0.5440   -4.0420 c2        1 1FR     -0.087000
     10 C14        -7.7210   -0.9720   -3.1740 c2        1 1FR     -0.151000
     11 C11        -4.7170   -0.9990   -2.7490 c1        1 1FR      0.127000
     12 C10        -6.5000   -1.3670   -1.0690 c2        1 1FR     -0.161000
     13 C8         -6.2310   -2.1370    0.1280 c2        1 1FR     -0.029000
     14 C4         -4.9030   -2.2700    0.7700 c2        1 1FR     -0.200000
     15 C5         -5.1520   -3.0690    1.8800 c2        1 1FR     -0.017000
     16 C6         -1.7740   -1.8190    3.2470 c1        1 1FR      0.245000
     17 C3         -3.7120   -1.7210    0.2290 c2        1 1FR      0.010000
     18 C2         -2.5140   -1.5110    0.8510 c2        1 1FR      0.038000
     19 C18       -13.8210   -0.2360   -4.6260 c3        1 1FR     -0.184000
     20 C19       -11.5810   -1.2960   -4.8950 c2        1 1FR     -0.031000
     21 O20       -10.9460   -0.5660   -3.9180 oh        1 1FR     -0.292000
     22 O21        -6.5110   -3.3840    1.8890 os        1 1FR     -0.026000
     23 N9         -7.1290   -2.8280    0.8610 n2        1 1FR      0.008000
     24 N1         -2.3560   -1.7560    2.2320 n2        1 1FR     -0.039000
     25 N7         -1.3040   -1.0720    0.2440 n3        1 1FR     -0.294000
     26 C29        -2.3480    1.0320   -0.6700 c3        1 1FR     -0.254000
     27 C25        -0.0840   -0.6740    4.1800 c1        1 1FR      0.025000
     28 H28         1.3040    0.3370    0.8090 hc        1 1FR      0.129500
     29 H27         1.2550    2.1370    0.9800 hc        1 1FR      0.129500
     30 H26         2.1440    1.6010    3.1400 ha        1 1FR      0.182000
     31 H24        -1.2080    0.8170    2.1030 hc        1 1FR      0.098000
     32 H22        -1.0150    2.2380    1.0220 hc        1 1FR      0.098000
     33 H17       -13.2670   -1.8220   -6.0440 ha        1 1FR      0.143000
     34 H17A       -8.7960   -0.8070   -3.4000 ha        1 1FR      0.192000
     35 H15        -8.1050   -2.5870   -1.7920 ha        1 1FR      0.165000
     36 H13        -7.0900   -0.0080   -4.9600 ha        1 1FR      0.166000
     37 H11        -5.9360   -0.4140   -1.1310 ha        1 1FR      0.158000
     38 H6         -4.5750   -3.5110    2.6880 h4        1 1FR      0.205000
     39 H3         -3.7880   -1.4230   -0.8510 ha        1 1FR      0.224000
     40 H18       -13.4780    0.8210   -4.7590 hc        1 1FR      0.082000
     41 H18A      -14.8320   -0.3330   -5.0910 hc        1 1FR      0.082000
     42 H19       -10.8640   -1.9980   -5.3500 h4        1 1FR      0.159000
     43 H19A      -13.9240   -0.4340   -3.5280 hc        1 1FR      0.082000
     44 HO20      -11.5820    0.0470   -3.5220 ho        1 1FR      0.219000
     45 HN7        -0.2890    0.3910   -0.8020 h1        1 1FR      0.115000
     46 H29        -2.0630    2.0540   -1.0180 hc        1 1FR      0.096667
     47 H29A       -2.7200    0.4540   -1.5530 hc        1 1FR      0.096667
     48 H29B       -3.1790    1.1250    0.0690 hc        1 1FR      0.096667
     49 H25        -1.1580   -2.1990    5.3270 ha        1 1FR      0.222000
     50 C17       -12.8710   -1.1790   -5.2440 c2        1 1FR     -0.260000
     51 H72        -1.0970   -1.6390   -0.5570 hn        1 1FR      0.217000
     52 CL         -4.4220   -0.7240   -5.3170 cl        1 1FR      0.049000
@<TRIPOS>BOND
     1    1    2 1   
     2    1    5 1   
     3    1   28 1   
     4    1   29 1   
     5    2    3 1   
     6    2   30 1   
     7    3   27 1   
     8    4   16 1   
     9    4   27 1   
    10    4   49 1   
    11    5    6 1   
    12    5   31 1   
    13    5   32 1   
    14    6   25 1   
    15    6   26 1   
    16    6   45 1   
    17    7   10 1   
    18    7   12 1   
    19    7   35 1   
    20    8    9 1   
    21    8   11 1   
    22    8   52 1   
    23    9   10 1   
    24    9   36 1   
    25   10   34 1   
    26   12   13 1   
    27   12   37 1   
    28   13   14 1   
    29   13   23 1   
    30   14   15 1   
    31   14   17 1   
    32   15   22 1   
    33   15   38 1   
    34   16   24 1   
    35   17   18 1   
    36   17   39 1   
    37   18   24 1   
    38   18   25 1   
    39   19   40 1   
    40   19   41 1   
    41   19   43 1   
    42   19   50 1   
    43   20   21 1   
    44   20   42 1   
    45   20   50 1   
    46   21   44 1   
    47   22   23 1   
    48   25   51 1   
    49   26   46 1   
    50   26   47 1   
    51   26   48 1   
    52   33   50 1   
@<TRIPOS>SUBSTRUCTURE
     1 1FR         1 TEMP              0 ****  ****    0 ROOT
