@<TRIPOS>MOLECULE
1FS
   40    42     1     0     0
SMALL
bcc


@<TRIPOS>ATOM
      1 O3           0.1730    -0.7920     1.9060 os         1 1FS      -0.230200
      2 O5          -6.6930     0.5340     4.6810 o          1 1FS      -0.203000
      3 C1           1.7010    -0.5470    -0.6220 cg         1 1FS       0.218800
      4 C2           2.2830    -0.4100     0.6650 ca         1 1FS      -0.051000
      5 C3           3.6440    -0.0830     0.7500 ca         1 1FS      -0.013000
      6 C4           4.2400     0.0810     2.0070 ca         1 1FS      -0.199200
      7 C5           3.4940    -0.0700     3.1900 ca         1 1FS      -0.031000
      8 C6           2.1500    -0.4020     3.1090 ca         1 1FS      -0.156000
      9 C7           1.5420    -0.5750     1.8510 ca         1 1FS       0.178100
     10 C8          -0.3670    -1.7250     1.0270 ca         1 1FS       0.093100
     11 C9           0.1740    -3.0060     0.8620 ca         1 1FS      -0.142000
     12 C10         -0.4940    -3.9390     0.0750 ca         1 1FS      -0.094000
     13 C11         -1.7050    -3.6000    -0.5430 ca         1 1FS       0.018400
     14 C12         -2.2580    -2.3260    -0.3860 ca         1 1FS      -0.108000
     15 C17         -5.0910     0.9740     3.0670 ca         1 1FS      -0.218200
     16 C16         -4.6830    -0.3710     3.0200 ca         1 1FS      -0.014000
     17 C15         -3.6620    -0.7460     2.1560 ca         1 1FS      -0.209000
     18 C14         -3.0470     0.2150     1.3400 ca         1 1FS       0.199100
     19 C13         -1.5820    -1.3860     0.4000 ca         1 1FS       0.078100
     20 C18         -4.4830     1.9440     2.2550 ca         1 1FS      -0.004000
     21 C19         -3.4550     1.5700     1.3850 ca         1 1FS      -0.042000
     22 C20         -2.8310     2.5450     0.5650 cg         1 1FS       0.234800
     23 O6          -6.5240     2.5260     4.0220 o          1 1FS      -0.203000
     24 N4          -2.3170     3.3430    -0.1070 n1         1 1FS      -0.328800
     25 O4          -2.0290    -0.0660     0.4490 os         1 1FS      -0.212200
     26 Cl          -2.5110    -4.7460    -1.4970 cl         1 1FS      -0.059400
     27 O2           6.1800     0.5690     3.1780 o          1 1FS      -0.198000
     28 O1           6.3140     0.5380     1.0760 o          1 1FS      -0.198000
     29 N1           1.2510    -0.6420    -1.6910 n1         1 1FS      -0.317800
     30 H1           4.2380     0.0510    -0.1730 ha         1 1FS       0.189000
     31 H2           3.9770     0.0710     4.1740 ha         1 1FS       0.183000
     32 H3           1.5420    -0.5200     4.0210 ha         1 1FS       0.173000
     33 H4           1.1250    -3.2650     1.3510 ha         1 1FS       0.159000
     34 H5          -0.0680    -4.9470    -0.0580 ha         1 1FS       0.163000
     35 H6          -3.2010    -2.0460    -0.8810 ha         1 1FS       0.174000
     36 H7          -5.1700    -1.1230     3.6660 ha         1 1FS       0.179000
     37 H8          -3.3340    -1.7960     2.1140 ha         1 1FS       0.166000
     38 H9          -4.8120     2.9980     2.3010 ha         1 1FS       0.187000
     39 N2           5.6860     0.4230     2.0930 no         1 1FS       0.318200
     40 N3          -6.1830     1.3740     3.9910 no         1 1FS       0.320200
@<TRIPOS>BOND
     1     1     9 1   
     2     1    10 1   
     3     2    40 1   
     4     3     4 1   
     5     3    29 3   
     6     4     5 ar  
     7     4     9 ar  
     8     5     6 ar  
     9     5    30 1   
    10     6     7 ar  
    11     6    39 1   
    12     7     8 ar  
    13     7    31 1   
    14     8     9 ar  
    15     8    32 1   
    16    10    11 ar  
    17    10    19 ar  
    18    11    12 ar  
    19    11    33 1   
    20    12    13 ar  
    21    12    34 1   
    22    13    14 ar  
    23    13    26 1   
    24    14    19 ar  
    25    14    35 1   
    26    15    16 ar  
    27    15    20 ar  
    28    15    40 1   
    29    16    17 ar  
    30    16    36 1   
    31    17    18 ar  
    32    17    37 1   
    33    18    21 ar  
    34    18    25 1   
    35    19    25 1   
    36    20    21 ar  
    37    20    38 1   
    38    21    22 1   
    39    22    24 3   
    40    23    40 1   
    41    27    39 1   
    42    28    39 1   
@<TRIPOS>SUBSTRUCTURE
     1 1FS         1 TEMP              0 ****  ****    0 ROOT
