@<TRIPOS>MOLECULE
molecule
   40    42     1     0     0
SMALL
bcc


@<TRIPOS>ATOM
      1 O3           0.0000     0.0000     0.0000 os         1 1FS      -0.226200
      2 O5          -1.5070     5.9030    -4.0850 o          1 1FS      -0.198000
      3 C1           2.4120     0.0110    -1.4320 cg         1 1FS       0.310800
      4 C2           2.3920     0.0000     0.0000 ca         1 1FS      -0.089000
      5 C3           3.5890     0.0000     0.7190 ca         1 1FS       0.000000
      6 C4           3.5620    -0.0060     2.0980 ca         1 1FS      -0.190200
      7 C5           2.3540    -0.0100     2.7740 ca         1 1FS      -0.013000
      8 C6           1.1620    -0.0100     2.0740 ca         1 1FS      -0.214000
      9 C7           1.1700    -0.0050     0.6880 ca         1 1FS       0.203100
     10 C8          -1.1560    -0.1070     0.7070 ca         1 1FS       0.072100
     11 C9          -1.7400    -1.3480     0.9010 ca         1 1FS      -0.111000
     12 C10         -2.9120    -1.4560     1.6240 ca         1 1FS      -0.106000
     13 C11         -3.5080    -0.3260     2.1560 ca         1 1FS       0.039400
     14 C12         -2.9300     0.9170     1.9660 ca         1 1FS      -0.118000
     15 C17         -1.8400     4.1790    -2.5380 ca         1 1FS      -0.191200
     16 C16         -2.4880     2.9890    -2.2550 ca         1 1FS      -0.014000
     17 C15         -2.2700     2.3420    -1.0550 ca         1 1FS      -0.213000
     18 C14         -1.3980     2.8850    -0.1210 ca         1 1FS       0.205100
     19 C13         -1.7540     1.0310     1.2420 ca         1 1FS       0.083100
     20 C18         -0.9710     4.7330    -1.6230 ca         1 1FS      -0.002000
     21 C19         -0.7410     4.0900    -0.4040 ca         1 1FS      -0.041000
     22 C20          0.1610     4.6590     0.5520 cg         1 1FS       0.236800
     23 O6          -2.8460     4.3710    -4.6420 o          1 1FS      -0.198000
     24 N4           0.8790     5.0930     1.3190 n1         1 1FS      -0.328800
     25 O4          -1.1830     2.2510     1.0590 os         1 1FS      -0.222200
     26 Cl          -4.9810    -0.4690     3.0630 cl         1 1FS      -0.069400
     27 O2           4.8120    -0.0110     4.0770 o          1 1FS      -0.198000
     28 O1           5.8970    -0.0010     2.2670 o          1 1FS      -0.198000
     29 N1           2.6740    -0.1250    -2.3720 n1         1 1FS      -0.352800
     30 H1           4.5360     0.0510     0.1950 ha         1 1FS       0.184000
     31 H2           2.3390    -0.0150     3.8570 ha         1 1FS       0.175000
     32 H3           0.2200    -0.0130     2.6090 ha         1 1FS       0.164000
     33 H4          -1.2910    -2.2320     0.4630 ha         1 1FS       0.166000
     34 H5          -3.3680    -2.4280     1.7750 ha         1 1FS       0.164000
     35 H6          -3.3970     1.8000     2.3840 ha         1 1FS       0.172000
     36 H7          -3.1700     2.5580    -2.9780 ha         1 1FS       0.175000
     37 H8          -2.7800     1.4110    -0.8400 ha         1 1FS       0.164000
     38 H9          -0.4670     5.6650    -1.8490 ha         1 1FS       0.185000
     39 N2           4.8330    -0.0060     2.8600 no         1 1FS       0.298200
     40 N3          -2.0780     4.8580    -3.8310 no         1 1FS       0.298200
@<TRIPOS>BOND
     1    26    13 1   
     2    28    39 1   
     3    12    13 ar  
     4    12    11 ar  
     5    13    14 ar  
     6    11    10 ar  
     7    39     6 1   
     8    39    27 1   
     9    14    19 ar  
    10     6     7 ar  
    11     6     5 ar  
    12     7     8 ar  
    13     5     4 ar  
    14     8     9 ar  
    15    10    19 ar  
    16    10     1 1   
    17    19    25 1   
    18     2    40 1   
    19     4     9 ar  
    20     4     3 1   
    21     9     1 1   
    22     3    29 3   
    23    16    17 ar  
    24    16    15 ar  
    25    17    18 ar  
    26    40    15 1   
    27    40    23 1   
    28    15    20 ar  
    29    25    18 1   
    30    18    21 ar  
    31    20    21 ar  
    32    21    22 1   
    33    22    24 3   
    34     5    30 1   
    35     7    31 1   
    36     8    32 1   
    37    11    33 1   
    38    12    34 1   
    39    14    35 1   
    40    16    36 1   
    41    17    37 1   
    42    20    38 1   
@<TRIPOS>SUBSTRUCTURE
     1 1FS         1 TEMP              0 ****  ****    0 ROOT
