@<TRIPOS>MOLECULE
1FS
   40    42     1     0     0
SMALL
bcc


@<TRIPOS>ATOM
      1 O3           0.0000     0.0000     0.0000 os         1 1FS      -0.202200
      2 O5          -1.5070     5.9030    -4.0850 o          1 1FS      -0.444500
      3 C1           2.4120     0.0110    -1.4320 cg         1 1FS       0.228800
      4 C2           2.3920     0.0000     0.0000 ca         1 1FS      -0.038000
      5 C3           3.5890     0.0000     0.7190 ca         1 1FS       0.054000
      6 C4           3.5620    -0.0060     2.0980 ca         1 1FS      -0.484200
      7 C5           2.3540    -0.0100     2.7740 ca         1 1FS       0.052000
      8 C6           1.1620    -0.0100     2.0740 ca         1 1FS      -0.216000
      9 C7           1.1700    -0.0050     0.6880 ca         1 1FS       0.216100
     10 C8          -1.1560    -0.1070     0.7070 ca         1 1FS       0.069100
     11 C9          -1.7400    -1.3480     0.9010 ca         1 1FS      -0.084000
     12 C10         -2.9120    -1.4560     1.6240 ca         1 1FS      -0.080000
     13 C11         -3.5080    -0.3260     2.1560 ca         1 1FS      -0.030600
     14 C12         -2.9300     0.9170     1.9660 ca         1 1FS      -0.097000
     15 C17         -1.8400     4.1790    -2.5380 ca         1 1FS      -0.485200
     16 C16         -2.4880     2.9890    -2.2550 ca         1 1FS       0.050000
     17 C15         -2.2700     2.3420    -1.0550 ca         1 1FS      -0.214000
     18 C14         -1.3980     2.8850    -0.1210 ca         1 1FS       0.219100
     19 C13         -1.7540     1.0310     1.2420 ca         1 1FS       0.082100
     20 C18         -0.9710     4.7330    -1.6230 ca         1 1FS       0.054000
     21 C19         -0.7410     4.0900    -0.4040 ca         1 1FS      -0.017000
     22 C20          0.1610     4.6590     0.5520 cg         1 1FS       0.222800
     23 O6          -2.8460     4.3710    -4.6420 o          1 1FS      -0.444500
     24 N4           0.8790     5.0930     1.3190 n1         1 1FS      -0.349800
     25 O4          -1.1830     2.2510     1.0590 os         1 1FS      -0.200200
     26 Cl          -4.9810    -0.4690     3.0630 cl         1 1FS       0.017600
     27 O2           4.8120    -0.0110     4.0770 o          1 1FS      -0.445000
     28 O1           5.8970    -0.0010     2.2670 o          1 1FS      -0.445000
     29 N1           2.6740    -0.1250    -2.3720 n1         1 1FS      -0.328800
     30 H1           4.5360     0.0510     0.1950 ha         1 1FS       0.145000
     31 H2           2.3390    -0.0150     3.8570 ha         1 1FS       0.136000
     32 H3           0.2200    -0.0130     2.6090 ha         1 1FS       0.139000
     33 H4          -1.2910    -2.2320     0.4630 ha         1 1FS       0.129000
     34 H5          -3.3680    -2.4280     1.7750 ha         1 1FS       0.127000
     35 H6          -3.3970     1.8000     2.3840 ha         1 1FS       0.137000
     36 H7          -3.1700     2.5580    -2.9780 ha         1 1FS       0.136000
     37 H8          -2.7800     1.4110    -0.8400 ha         1 1FS       0.139000
     38 H9          -0.4670     5.6650    -1.8490 ha         1 1FS       0.145000
     39 N2           4.8330    -0.0060     2.8600 no         1 1FS       1.052200
     40 N3          -2.0780     4.8580    -3.8310 no         1 1FS       1.052200
@<TRIPOS>BOND
     1     1     9 1   
     2     1    10 1   
     3     2    40 1   
     4     3     4 1   
     5     3    29 3   
     6     4     5 ar  
     7     4     9 ar  
     8     5     6 ar  
     9     5    30 1   
    10     6     7 ar  
    11     6    39 1   
    12     7     8 ar  
    13     7    31 1   
    14     8     9 ar  
    15     8    32 1   
    16    10    11 ar  
    17    10    19 ar  
    18    11    12 ar  
    19    11    33 1   
    20    12    13 ar  
    21    12    34 1   
    22    13    14 ar  
    23    13    26 1   
    24    14    19 ar  
    25    14    35 1   
    26    15    16 ar  
    27    15    20 ar  
    28    15    40 1   
    29    16    17 ar  
    30    16    36 1   
    31    17    18 ar  
    32    17    37 1   
    33    18    21 ar  
    34    18    25 1   
    35    19    25 1   
    36    20    21 ar  
    37    20    38 1   
    38    21    22 1   
    39    22    24 3   
    40    23    40 1   
    41    27    39 1   
    42    28    39 1   
@<TRIPOS>SUBSTRUCTURE
     1 1FS         1 TEMP              0 ****  ****    0 ROOT
