@<TRIPOS>MOLECULE
1FT
   48    49     1     0     0
SMALL
bcc


@<TRIPOS>ATOM
      1 OAH         1.2450   -0.2890   -0.1690 o         1 1FT     -0.920833
      2 PBA         2.5900    0.3210   -0.4210 p5        1 1FT      1.340900
      3 OAI         3.4550    0.8840    0.6670 o         1 1FT     -0.920833
      4 OAJ         3.3570   -0.3790   -1.5330 o         1 1FT     -0.920833
      5 O6          2.1450    1.7110   -1.3270 os        1 1FT     -0.591200
      6 C6          2.6650    2.9280   -0.9710 c3        1 1FT      0.195400
      7 C5          3.8560    3.4010   -1.8330 c3        1 1FT      0.081100
      8 O5          3.7150    3.0900   -3.2190 os        1 1FT     -0.421600
      9 C4          5.2530    2.9990   -1.3320 c3        1 1FT      0.124100
     10 O4          5.3700    3.1670    0.0660 oh        1 1FT     -0.648800
     11 C3          5.6570    1.5790   -1.7500 c3        1 1FT      0.048100
     12 O3          7.0290    1.3560   -1.4720 oh        1 1FT     -0.585800
     13 C2          5.3610    1.2900   -3.2370 c3        1 1FT      0.147100
     14 O2          5.5420   -0.0880   -3.4880 oh        1 1FT     -0.628800
     15 C1          3.9250    1.7210   -3.5480 c3        1 1FT      0.171200
     16 SAP         3.5410    1.6290   -5.2980 ss        1 1FT     -0.344200
     17 CAZ         1.8450    1.0910   -5.4460 c3        1 1FT     -0.021600
     18 CAX         1.7320   -0.4250   -5.6650 c3        1 1FT      0.124100
     19 OAG         0.6960   -0.6520   -6.6210 oh        1 1FT     -0.632800
     20 CAT         1.4490   -1.2990   -4.4190 c3        1 1FT      0.111100
     21 OAC         2.6330   -1.9180   -3.9820 oh        1 1FT     -0.635800
     22 CAQ         0.7480   -0.4820   -3.3190 c3        1 1FT      0.292900
     23 OAB        -0.2660   -1.2210   -2.7030 oh        1 1FT     -0.626800
     24 OAN        -0.0020    0.5760   -3.9410 os        1 1FT     -0.470600
     25 CAR         0.8740    1.6130   -4.3890 c3        1 1FT      0.093100
     26 CAK        -0.0510    2.6860   -4.9750 c3        1 1FT      0.148400
     27 OAA        -0.9910    3.1700   -4.0360 oh        1 1FT     -0.630800
     28 H3          2.9780    2.9280    0.1120 h1        1 1FT      0.014200
     29 H4          1.8530    3.7040   -1.1130 h1        1 1FT      0.014200
     30 H5          3.8220    4.5330   -1.8400 h1        1 1FT      0.030700
     31 H6          6.0010    3.7300   -1.7610 h1        1 1FT      0.016700
     32 H7          4.9100    2.4170    0.4960 ho        1 1FT      0.477000
     33 H8          5.0900    0.8200   -1.1070 h1        1 1FT      0.180700
     34 H9          7.5280    1.9740   -2.0180 ho        1 1FT      0.362000
     35 H10         6.1010    1.8120   -3.9030 h1        1 1FT      0.033700
     36 H11         4.9410   -0.5660   -2.8820 ho        1 1FT      0.468000
     37 H12         3.2360    1.0420   -2.9500 h2        1 1FT      0.176700
     38 H13         1.5790    1.5580   -6.4390 h1        1 1FT      0.067700
     39 H14         2.6700   -0.7980   -6.1650 h1        1 1FT      0.091700
     40 H15        -0.1320   -0.4220   -6.1780 ho        1 1FT      0.406000
     41 H16         0.7760   -2.1460   -4.7450 h1        1 1FT      0.058700
     42 H17         3.0010   -1.4180   -3.2250 ho        1 1FT      0.481000
     43 H18         1.4930   -0.0740   -2.5670 h2        1 1FT      0.144700
     44 H19        -0.1800   -1.0380   -1.7450 ho        1 1FT      0.474000
     45 H20         1.4260    2.0350   -3.4910 h1        1 1FT      0.134700
     46 H21        -0.6190    2.2660   -5.8510 h1        1 1FT      0.028200
     47 H22         0.5530    3.5720   -5.3010 h1        1 1FT      0.028200
     48 H23        -1.0860    2.5000   -3.3440 ho        1 1FT      0.434000
@<TRIPOS>BOND
     1    1    2 1   
     2    2    3 1   
     3    2    4 1   
     4    2    5 1   
     5    5    6 1   
     6    6    7 1   
     7    6   28 1   
     8    6   29 1   
     9    7    8 1   
    10    7    9 1   
    11    7   30 1   
    12    8   15 1   
    13    9   10 1   
    14    9   11 1   
    15    9   31 1   
    16   10   32 1   
    17   11   12 1   
    18   11   13 1   
    19   11   33 1   
    20   12   34 1   
    21   13   14 1   
    22   13   15 1   
    23   13   35 1   
    24   14   36 1   
    25   15   16 1   
    26   15   37 1   
    27   16   17 1   
    28   17   18 1   
    29   17   25 1   
    30   17   38 1   
    31   18   19 1   
    32   18   20 1   
    33   18   39 1   
    34   19   40 1   
    35   20   21 1   
    36   20   22 1   
    37   20   41 1   
    38   21   42 1   
    39   22   23 1   
    40   22   24 1   
    41   22   43 1   
    42   23   44 1   
    43   24   25 1   
    44   25   26 1   
    45   25   45 1   
    46   26   27 1   
    47   26   46 1   
    48   26   47 1   
    49   27   48 1   
@<TRIPOS>SUBSTRUCTURE
     1 1FT         1 TEMP              0 ****  ****    0 ROOT
