@<TRIPOS>MOLECULE
1FV
   70    74     1     0     0
SMALL
bcc


@<TRIPOS>ATOM
      1 CAM          0.0000     0.0000     0.0000 cy         1 1FV      -0.022400
      2 CAH          1.5380     0.0000     0.0000 cy         1 1FV      -0.047400
      3 CAN          1.4600     0.0000     1.5360 cy         1 1FV      -0.022400
      4 CBF          0.0770     0.6590     1.3880 cy         1 1FV      -0.156700
      5 CAZ         -0.9470     0.1380     2.3630 c          1 1FV       0.586100
      6 OAA         -0.6420    -0.7210     3.1630 o          1 1FV      -0.642100
      7 NAV         -2.2040     0.6260     2.3470 ns         1 1FV      -0.203900
      8 CAI         -3.1990     0.1200     3.2940 c3         1 1FV       0.056000
      9 CAG         -4.5320     0.8350     3.0650 c3         1 1FV      -0.055400
     10 CAJ         -5.5720     0.3070     4.0550 c3         1 1FV       0.170800
     11 NAW         -6.8480     0.9910     3.8360 nu         1 1FV      -0.508900
     12 C4          -7.9470     0.6770     4.6190 ca         1 1FV       0.596200
     13 N3          -7.8540    -0.2450     5.5720 nb         1 1FV      -0.760000
     14 C5          -9.1660     1.3280     4.4220 ca         1 1FV      -0.426900
     15 CBG         -9.3150     2.3830     3.3560 cx         1 1FV      -0.029400
     16 CAO         -9.7200     3.7880     3.8050 cx         1 1FV      -0.082400
     17 CAP        -10.7240     2.9000     3.0660 cx         1 1FV      -0.082400
     18 C6         -10.2350     0.9820     5.2260 ca         1 1FV       0.514200
     19 N1         -10.0730     0.0500     6.1540 nb         1 1FV      -0.732000
     20 C2          -8.9030    -0.5470     6.3220 ca         1 1FV       0.739900
     21 NAX         -8.7740    -1.5170     7.3030 nu         1 1FV      -0.286300
     22 CBB         -9.8970    -1.9370     8.0220 ca         1 1FV       0.002600
     23 CAF         -9.7720    -2.3080     9.3550 ca         1 1FV      -0.115000
     24 CAD        -11.1420    -1.9810     7.4060 ca         1 1FV      -0.107000
     25 CAB        -12.2490    -2.3970     8.1190 ca         1 1FV      -0.083000
     26 CAC        -12.1200    -2.7700     9.4430 ca         1 1FV      -0.124000
     27 CBA        -10.8840    -2.7230    10.0620 ca         1 1FV      -0.075300
     28 CAS        -10.7490    -3.1240    11.5080 c3         1 1FV       0.213100
     29 NBH        -10.9470    -1.9470    12.3640 n3         1 1FV      -0.532600
     30 CAQ        -10.5920    -2.2440    13.7600 c3         1 1FV       0.103300
     31 CAK        -10.7570    -0.9780    14.6030 c3         1 1FV       0.214400
     32 OAY        -12.0980    -0.4960    14.4760 os         1 1FV      -0.413600
     33 CAL        -12.4770    -0.1970    13.1300 c3         1 1FV       0.214400
     34 CAR        -12.3300    -1.4560    12.2710 c3         1 1FV       0.103300
     35 H1          -0.4240     0.6510    -0.7550 hc         1 1FV       0.032200
     36 H2          -0.4240    -0.9970     0.0270 hc         1 1FV       0.032200
     37 H3           1.9620    -0.9120    -0.4030 hc         1 1FV       0.025200
     38 H4           1.9620     0.9120    -0.4030 hc         1 1FV       0.025200
     39 H5           1.4110    -0.9970     1.9580 hc         1 1FV       0.032200
     40 H6           2.1920     0.6510     1.9970 hc         1 1FV       0.032200
     41 H7           0.1320     1.7400     1.3350 hc         1 1FV       0.049700
     42 H8          -2.4520     1.3490     1.7010 hn         1 1FV       0.173500
     43 H9          -3.3300    -0.9450     3.1450 h1         1 1FV       0.029700
     44 H10         -2.8600     0.3030     4.3060 h1         1 1FV       0.029700
     45 H11         -4.8720     0.6510     2.0530 hc         1 1FV       0.018700
     46 H12         -4.4010     1.9000     3.2140 hc         1 1FV       0.018700
     47 H13         -5.7030    -0.7580     3.9070 h1         1 1FV       0.028700
     48 H14         -5.2330     0.4910     5.0680 h1         1 1FV       0.028700
     49 H15         -6.9330     1.6690     3.1040 hn         1 1FV       0.302800
     50 H16         -8.6570     2.3530     2.4960 hc         1 1FV       0.049700
     51 H17         -9.3010     4.6020     3.2260 hc         1 1FV       0.048450
     52 H18         -9.8940     3.9080     4.8670 hc         1 1FV       0.048450
     53 H19        -10.9190     3.1720     2.0350 hc         1 1FV       0.048450
     54 H20        -11.5130     2.4780     3.6770 hc         1 1FV       0.048450
     55 H21        -11.1960     1.4660     5.0980 h4         1 1FV      -0.011900
     56 H22         -7.8810    -1.9320     7.4830 hn         1 1FV       0.291800
     57 H23         -8.8040    -2.2710     9.8400 ha         1 1FV       0.111000
     58 H24        -11.2440    -1.6890     6.3680 ha         1 1FV       0.136000
     59 H25        -13.2190    -2.4330     7.6390 ha         1 1FV       0.101000
     60 H26        -12.9910    -3.0950    10.0000 ha         1 1FV       0.105000
     61 H27        -11.4950    -3.8730    11.7460 h1         1 1FV       0.011700
     62 H28         -9.7610    -3.5320    11.6800 h1         1 1FV       0.011700
     63 H30        -11.2470    -3.0180    14.1410 h1         1 1FV       0.019950
     64 H31         -9.5630    -2.5770    13.8070 h1         1 1FV       0.019950
     65 H32        -10.0670    -0.2190    14.2540 h1         1 1FV       0.012200
     66 H33        -10.5540    -1.2080    15.6420 h1         1 1FV       0.012200
     67 H34        -11.8350     0.5830    12.7390 h1         1 1FV       0.012200
     68 H35        -13.5090     0.1340    13.1110 h1         1 1FV       0.012200
     69 H36        -13.0090    -2.2190    12.6310 h1         1 1FV       0.019950
     70 H37        -12.5600    -1.2170    11.2400 h1         1 1FV       0.019950
@<TRIPOS>BOND
     1     1     2 1   
     2     1     4 1   
     3     1    35 1   
     4     1    36 1   
     5     2     3 1   
     6     2    37 1   
     7     2    38 1   
     8     3     4 1   
     9     3    39 1   
    10     3    40 1   
    11     4     5 1   
    12     4    41 1   
    13     5     6 2   
    14     5     7 1   
    15     7     8 1   
    16     7    42 1   
    17     8     9 1   
    18     8    43 1   
    19     8    44 1   
    20     9    10 1   
    21     9    45 1   
    22     9    46 1   
    23    10    11 1   
    24    10    47 1   
    25    10    48 1   
    26    11    12 1   
    27    11    49 1   
    28    12    13 ar  
    29    12    14 ar  
    30    13    20 ar  
    31    14    15 1   
    32    14    18 ar  
    33    15    16 1   
    34    15    17 1   
    35    15    50 1   
    36    16    17 1   
    37    16    51 1   
    38    16    52 1   
    39    17    53 1   
    40    17    54 1   
    41    18    19 ar  
    42    18    55 1   
    43    19    20 ar  
    44    20    21 1   
    45    21    22 1   
    46    21    56 1   
    47    22    23 ar  
    48    22    24 ar  
    49    23    27 ar  
    50    23    57 1   
    51    24    25 ar  
    52    24    58 1   
    53    25    26 ar  
    54    25    59 1   
    55    26    27 ar  
    56    26    60 1   
    57    27    28 1   
    58    28    29 1   
    59    28    61 1   
    60    28    62 1   
    61    29    30 1   
    62    29    34 1   
    63    30    31 1   
    64    30    63 1   
    65    30    64 1   
    66    31    32 1   
    67    31    65 1   
    68    31    66 1   
    69    32    33 1   
    70    33    34 1   
    71    33    67 1   
    72    33    68 1   
    73    34    69 1   
    74    34    70 1   
@<TRIPOS>SUBSTRUCTURE
     1 1FV         1 TEMP              0 ****  ****    0 ROOT
