@<TRIPOS>MOLECULE
1FV
   71    75     1     0     0
SMALL
bcc


@<TRIPOS>ATOM
      1 CAM          4.0250    -7.0880    -0.1000 cy         1 1FV      -0.085900
      2 CAH          4.6060    -5.8210     0.5600 cy         1 1FV      -0.100400
      3 CAN          3.6130    -4.9440    -0.2310 cy         1 1FV      -0.085900
      4 CBF          3.0060    -6.2160    -0.8800 cy         1 1FV      -0.175700
      5 CAZ          1.5600    -6.4510    -0.5940 c          1 1FV       0.566100
      6 OAA          0.6580    -6.5510    -1.4130 o          1 1FV      -0.429100
      7 NAV          1.1740    -6.5820     0.8600 ny         1 1FV      -0.669800
      8 CAI         -0.0450    -5.8010     1.2260 c3         1 1FV       0.118800
      9 CAG          0.2240    -4.3460     1.5690 c3         1 1FV      -0.120400
     10 CAJ          1.1280    -4.1100     2.7810 c3         1 1FV       0.208800
     11 NAW          0.6230    -4.6180     4.0260 nu         1 1FV      -0.869900
     12 C4           1.0920    -5.8080     4.5910 ca         1 1FV       0.699200
     13 N3           1.4860    -6.8280     3.7640 nb         1 1FV      -0.854000
     14 C5           1.0960    -5.9660     6.0180 ca         1 1FV      -0.339900
     15 CBG          0.7190    -4.8820     6.9240 cx         1 1FV      -0.105400
     16 CAO         -0.1440    -5.1570     8.1310 cx         1 1FV      -0.117400
     17 CAP         -0.7030    -4.3760     6.9830 cx         1 1FV      -0.117400
     18 C6           1.5310    -7.2090     6.5090 ca         1 1FV       0.494200
     19 N1           1.9210    -8.2290     5.7280 nb         1 1FV      -0.733000
     20 C2           1.8860    -8.0030     4.3650 ca         1 1FV       0.867900
     21 NAX          2.3800    -9.0280     3.4980 nu         1 1FV      -0.704300
     22 CBB          1.5340    -9.4600     2.4420 ca         1 1FV       0.081600
     23 CAF          2.1400    -9.9810     1.2770 ca         1 1FV      -0.149000
     24 CAD          0.1270    -9.3870     2.5030 ca         1 1FV      -0.181000
     25 CAB         -0.6440    -9.8260     1.4290 ca         1 1FV      -0.122000
     26 CAC         -0.0390   -10.3370     0.2830 ca         1 1FV      -0.134000
     27 CBA          1.3540   -10.4160     0.2090 ca         1 1FV      -0.062300
     28 CAS          2.0210   -10.9750    -1.0200 c3         1 1FV       0.201100
     29 NBH          2.3470    -9.9240    -1.9790 n3         1 1FV      -0.748600
     30 CAQ          1.2550    -9.6630    -2.9120 c3         1 1FV       0.124800
     31 CAK          1.6120    -8.5860    -3.9420 c3         1 1FV       0.127400
     32 OAY          2.8310    -8.8770    -4.6120 os         1 1FV      -0.399600
     33 CAL          3.9130    -9.0870    -3.7150 c3         1 1FV       0.127400
     34 CAR          3.6000   -10.1780    -2.6840 c3         1 1FV       0.124800
     35 H1           3.5890    -7.8300     0.6030 hc         1 1FV       0.075450
     36 H2           4.7320    -7.6130    -0.7810 hc         1 1FV       0.075450
     37 H3           5.6730    -5.6300     0.3140 hc         1 1FV       0.075200
     38 H4           4.4700    -5.7790     1.6620 hc         1 1FV       0.075200
     39 H5           4.0930    -4.2720    -0.9760 hc         1 1FV       0.075450
     40 H6           2.9110    -4.3540     0.3960 hc         1 1FV       0.075450
     41 H7           3.1440    -6.2670    -1.9920 hc         1 1FV       0.132700
     42 H8           1.9680    -6.2850     1.4450 hn         1 1FV       0.478800
     43 H9          -0.7610    -5.8560     0.3530 hx         1 1FV       0.113200
     44 H10         -0.5250    -6.3160     2.1100 hx         1 1FV       0.113200
     45 H11         -0.7820    -3.8760     1.7540 hc         1 1FV       0.082700
     46 H12          0.6840    -3.8150     0.6930 hc         1 1FV       0.082700
     47 H13          2.1580    -4.5190     2.5650 h1         1 1FV       0.055700
     48 H14          1.2400    -2.9880     2.8810 h1         1 1FV       0.055700
     49 H15          0.3500    -3.9280     4.6960 hn         1 1FV       0.450800
     50 H16          1.5350    -4.1350     7.0410 hc         1 1FV       0.094700
     51 H17          0.0910    -4.6350     9.0760 hc         1 1FV       0.081950
     52 H18         -0.5080    -6.1860     8.3070 hc         1 1FV       0.081950
     53 H19         -1.4690    -4.8460     6.3400 hc         1 1FV       0.081950
     54 H20         -0.8730    -3.2910     7.1020 hc         1 1FV       0.081950
     55 H21          1.5650    -7.4000     7.6010 h4         1 1FV       0.052100
     56 H22          2.7950    -9.7990     3.9950 hn         1 1FV       0.445800
     57 H23          3.2370   -10.0720     1.2160 ha         1 1FV       0.156000
     58 H24         -0.3710    -9.0130     3.4120 ha         1 1FV       0.153000
     59 H25         -1.7430    -9.7890     1.4990 ha         1 1FV       0.153000
     60 H26         -0.6570   -10.6940    -0.5570 ha         1 1FV       0.154000
     61 H27          1.3450   -11.7610    -1.4710 h1         1 1FV       0.059700
     62 H28          2.9690   -11.4990    -0.7010 h1         1 1FV       0.059700
     63 H30          0.9500   -10.5980    -3.4660 h1         1 1FV       0.048450
     64 H31          0.3690    -9.3100    -2.3120 h1         1 1FV       0.048450
     65 H32          1.6830    -7.5790    -3.4480 h1         1 1FV       0.053700
     66 H33          0.8440    -8.5610    -4.7590 h1         1 1FV       0.053700
     67 H34          4.1660    -8.1210    -3.1990 h1         1 1FV       0.053700
     68 H35          4.7640    -9.4080    -4.3720 h1         1 1FV       0.053700
     69 H36          3.5850   -11.1750    -3.2130 h1         1 1FV       0.048450
     70 H37          4.4290   -10.1990    -1.9240 h1         1 1FV       0.048450
     71 HAV2         0.9960    -7.5820     1.0640 hn         1 1FV       0.478800
@<TRIPOS>BOND
     1     1     2 1   
     2     1     4 1   
     3     1    35 1   
     4     1    36 1   
     5     2     3 1   
     6     2    37 1   
     7     2    38 1   
     8     3     4 1   
     9     3    39 1   
    10     3    40 1   
    11     4     5 1   
    12     4    41 1   
    13     5     6 2   
    14     5     7 1   
    15     7     8 1   
    16     7    42 1   
    17     7    71 1   
    18     8     9 1   
    19     8    43 1   
    20     8    44 1   
    21     9    10 1   
    22     9    45 1   
    23     9    46 1   
    24    10    11 1   
    25    10    47 1   
    26    10    48 1   
    27    11    12 1   
    28    11    49 1   
    29    12    13 ar  
    30    12    14 ar  
    31    13    20 ar  
    32    14    15 1   
    33    14    18 ar  
    34    15    16 1   
    35    15    17 1   
    36    15    50 1   
    37    16    17 1   
    38    16    51 1   
    39    16    52 1   
    40    17    53 1   
    41    17    54 1   
    42    18    19 ar  
    43    18    55 1   
    44    19    20 ar  
    45    20    21 1   
    46    21    22 1   
    47    21    56 1   
    48    22    23 ar  
    49    22    24 ar  
    50    23    27 ar  
    51    23    57 1   
    52    24    25 ar  
    53    24    58 1   
    54    25    26 ar  
    55    25    59 1   
    56    26    27 ar  
    57    26    60 1   
    58    27    28 1   
    59    28    29 1   
    60    28    61 1   
    61    28    62 1   
    62    29    30 1   
    63    29    34 1   
    64    30    31 1   
    65    30    63 1   
    66    30    64 1   
    67    31    32 1   
    68    31    65 1   
    69    31    66 1   
    70    32    33 1   
    71    33    34 1   
    72    33    67 1   
    73    33    68 1   
    74    34    69 1   
    75    34    70 1   
@<TRIPOS>SUBSTRUCTURE
     1 1FV         1 TEMP              0 ****  ****    0 ROOT
