@<TRIPOS>MOLECULE
molecule
   70    74     1     0     0
SMALL
bcc


@<TRIPOS>ATOM
      1 CAM          0.0000     0.0000     0.0000 cy         1 1FV      -0.079400
      2 CAH          1.5380     0.0000     0.0000 cy         1 1FV      -0.106400
      3 CAN          1.4600     0.0000     1.5360 cy         1 1FV      -0.079400
      4 CBF          0.0770     0.6590     1.3880 cy         1 1FV      -0.179700
      5 CAZ         -0.9470     0.1380     2.3630 c          1 1FV       0.669100
      6 OAA         -0.6420    -0.7210     3.1630 o          1 1FV      -0.605100
      7 NAV         -2.2040     0.6260     2.3470 ns         1 1FV      -0.589900
      8 CAI         -3.1990     0.1200     3.2940 c3         1 1FV       0.116000
      9 CAG         -4.5320     0.8350     3.0650 c3         1 1FV      -0.123400
     10 CAJ         -5.5720     0.3070     4.0550 c3         1 1FV       0.243800
     11 NAW         -6.8480     0.9910     3.8360 nu         1 1FV      -0.910900
     12 C4          -7.9470     0.6770     4.6190 ca         1 1FV       0.774200
     13 N3          -7.8540    -0.2450     5.5720 nb         1 1FV      -0.860000
     14 C5          -9.1660     1.3280     4.4220 ca         1 1FV      -0.413900
     15 CBG         -9.3150     2.3830     3.3560 cx         1 1FV      -0.071400
     16 CAO         -9.7200     3.7880     3.8050 cx         1 1FV      -0.134900
     17 CAP        -10.7240     2.9000     3.0660 cx         1 1FV      -0.134900
     18 C6         -10.2350     0.9820     5.2260 ca         1 1FV       0.519200
     19 N1         -10.0730     0.0500     6.1540 nb         1 1FV      -0.822000
     20 C2          -8.9030    -0.5470     6.3220 ca         1 1FV       0.969900
     21 NAX         -8.7740    -1.5170     7.3030 nu         1 1FV      -0.754300
     22 CBB         -9.8970    -1.9370     8.0220 ca         1 1FV       0.162600
     23 CAF         -9.7720    -2.3080     9.3550 ca         1 1FV      -0.144000
     24 CAD        -11.1420    -1.9810     7.4060 ca         1 1FV      -0.124000
     25 CAB        -12.2490    -2.3970     8.1190 ca         1 1FV      -0.115000
     26 CAC        -12.1200    -2.7700     9.4430 ca         1 1FV      -0.150000
     27 CBA        -10.8840    -2.7230    10.0620 ca         1 1FV      -0.065300
     28 CAS        -10.7490    -3.1240    11.5080 c3         1 1FV       0.210100
     29 NBH        -10.9470    -1.9470    12.3640 n3         1 1FV      -0.722600
     30 CAQ        -10.5920    -2.2440    13.7600 c3         1 1FV       0.121300
     31 CAK        -10.7570    -0.9780    14.6030 c3         1 1FV       0.139400
     32 OAY        -12.0980    -0.4960    14.4760 os         1 1FV      -0.427600
     33 CAL        -12.4770    -0.1970    13.1300 c3         1 1FV       0.139400
     34 CAR        -12.3300    -1.4560    12.2710 c3         1 1FV       0.121300
     35 H1          -0.4240     0.6510    -0.7550 hc         1 1FV       0.063450
     36 H2          -0.4240    -0.9970     0.0270 hc         1 1FV       0.063450
     37 H3           1.9620    -0.9120    -0.4030 hc         1 1FV       0.055700
     38 H4           1.9620     0.9120    -0.4030 hc         1 1FV       0.055700
     39 H5           1.4110    -0.9970     1.9580 hc         1 1FV       0.063450
     40 H6           2.1920     0.6510     1.9970 hc         1 1FV       0.063450
     41 H7           0.1320     1.7400     1.3350 hc         1 1FV       0.076700
     42 H8          -2.4520     1.3490     1.7010 hn         1 1FV       0.312500
     43 H9          -3.3300    -0.9450     3.1450 h1         1 1FV       0.057700
     44 H10         -2.8600     0.3030     4.3060 h1         1 1FV       0.057700
     45 H11         -4.8720     0.6510     2.0530 hc         1 1FV       0.049200
     46 H12         -4.4010     1.9000     3.2140 hc         1 1FV       0.049200
     47 H13         -5.7030    -0.7580     3.9070 h1         1 1FV       0.056700
     48 H14         -5.2330     0.4910     5.0680 h1         1 1FV       0.056700
     49 H15         -6.9330     1.6690     3.1040 hn         1 1FV       0.451800
     50 H16         -8.6570     2.3530     2.4960 hc         1 1FV       0.072700
     51 H17         -9.3010     4.6020     3.2260 hc         1 1FV       0.075950
     52 H18         -9.8940     3.9080     4.8670 hc         1 1FV       0.075950
     53 H19        -10.9190     3.1720     2.0350 hc         1 1FV       0.075950
     54 H20        -11.5130     2.4780     3.6770 hc         1 1FV       0.075950
     55 H21        -11.1960     1.4660     5.0980 h4         1 1FV       0.031100
     56 H22         -7.8810    -1.9320     7.4830 hn         1 1FV       0.465800
     57 H23         -8.8040    -2.2710     9.8400 ha         1 1FV       0.135000
     58 H24        -11.2440    -1.6890     6.3680 ha         1 1FV       0.159000
     59 H25        -13.2190    -2.4330     7.6390 ha         1 1FV       0.130000
     60 H26        -12.9910    -3.0950    10.0000 ha         1 1FV       0.127000
     61 H27        -11.4950    -3.8730    11.7460 h1         1 1FV       0.039700
     62 H28         -9.7610    -3.5320    11.6800 h1         1 1FV       0.039700
     63 H30        -11.2470    -3.0180    14.1410 h1         1 1FV       0.044200
     64 H31         -9.5630    -2.5770    13.8070 h1         1 1FV       0.044200
     65 H32        -10.0670    -0.2190    14.2540 h1         1 1FV       0.053200
     66 H33        -10.5540    -1.2080    15.6420 h1         1 1FV       0.053200
     67 H34        -11.8350     0.5830    12.7390 h1         1 1FV       0.053200
     68 H35        -13.5090     0.1340    13.1110 h1         1 1FV       0.053200
     69 H36        -13.0090    -2.2190    12.6310 h1         1 1FV       0.044200
     70 H37        -12.5600    -1.2170    11.2400 h1         1 1FV       0.044200
@<TRIPOS>BOND
     1    16    17 1
     2    16    15 1
     3    17    15 1
     4    15    14 1
     5     3     4 1
     6     3     2 1
     7    18    14 ar
     8    18    19 ar
     9    14    12 ar
    10     6     5 2
    11     4     5 1
    12     4     1 1
    13     5     7 1
    14    19    20 ar
    15     2     1 1
    16    11    12 1
    17    11    10 1
    18    12    13 ar
    19     7     8 1
    20    20    13 ar
    21    20    21 1
    22    10     9 1
    23     9     8 1
    24    21    22 1
    25    22    24 ar
    26    22    23 ar
    27    24    25 ar
    28    23    27 ar
    29    25    26 ar
    30    27    26 ar
    31    27    28 1
    32    34    33 1
    33    34    29 1
    34    33    32 1
    35    28    29 1
    36    29    30 1
    37    32    31 1
    38    30    31 1
    39     1    35 1
    40     1    36 1
    41     2    37 1
    42     2    38 1
    43     3    39 1
    44     3    40 1
    45     4    41 1
    46     7    42 1
    47     8    43 1
    48     8    44 1
    49     9    45 1
    50     9    46 1
    51    10    47 1
    52    10    48 1
    53    11    49 1
    54    15    50 1
    55    16    51 1
    56    16    52 1
    57    17    53 1
    58    17    54 1
    59    18    55 1
    60    21    56 1
    61    23    57 1
    62    24    58 1
    63    25    59 1
    64    26    60 1
    65    28    61 1
    66    28    62 1
    67    30    63 1
    68    30    64 1
    69    31    65 1
    70    31    66 1
    71    33    67 1
    72    33    68 1
    73    34    69 1
    74    34    70 1
@<TRIPOS>SUBSTRUCTURE
     1 1FV         1 TEMP              0 ****  ****    0 ROOT
