@<TRIPOS>MOLECULE
1FW
   49    52     1     0     0
SMALL
bcc


@<TRIPOS>ATOM
      1 O26          0.1640     0.5770    -0.3600 o          1 1FW      -0.623500
      2 C25          1.3480     0.2100    -0.2510 c          1 1FW       0.712100
      3 C27          2.0330     0.0010     1.0430 ca         1 1FW      -0.166600
      4 C28          1.3310     0.2240     2.2330 ca         1 1FW      -0.100000
      5 C5           3.3890    -0.4170     1.0580 ca         1 1FW       0.164400
      6 N6           4.0900    -0.6460    -0.1350 nc         1 1FW      -0.606100
      7 C4           4.0260    -0.6060     2.3090 ca         1 1FW      -0.096000
      8 C3           3.3350    -0.3860     3.4860 ca         1 1FW      -0.128000
      9 C2           1.9840     0.0300     3.4550 ca         1 1FW       0.105900
     10 F1           1.3230     0.2400     4.6190 f          1 1FW      -0.133900
     11 N8           2.1260    -0.0350    -1.4080 n          1 1FW      -0.402300
     12 C7           3.4570    -0.4530    -1.2640 cd         1 1FW       0.494800
     13 C9           1.5680     0.1940    -2.7260 c3         1 1FW       0.040700
     14 C17          1.6290    -1.1120    -3.5630 c          1 1FW       0.639100
     15 N19          0.4310    -1.7510    -3.8120 ns         1 1FW      -0.510400
     16 C20          0.3180    -2.9130    -4.5800 cc         1 1FW       0.472300
     17 N21         -0.8770    -3.5050    -4.8380 nd         1 1FW      -0.680000
     18 C22         -0.6620    -4.6230    -5.6130 cd         1 1FW       0.354200
     19 C23          0.6620    -4.8800    -5.9410 cc         1 1FW      -0.311400
     20 S24          1.6730    -3.7320    -5.2880 ss         1 1FW       0.023700
     21 O18          2.7160    -1.5480    -3.9900 o          1 1FW      -0.594100
     22 C10          2.2760     1.2740    -3.5580 c3         1 1FW      -0.088400
     23 C11          2.2700     2.6520    -2.9190 c3         1 1FW      -0.063700
     24 C12          3.0700     3.6060    -3.8000 c3         1 1FW      -0.078400
     25 C13          3.0820     5.0070    -3.2280 c3         1 1FW      -0.075400
     26 C14          1.6740     5.5280    -3.0250 c3         1 1FW      -0.078400
     27 C15          0.8680     4.5880    -2.1540 c3         1 1FW      -0.075400
     28 C16          0.8570     3.1790    -2.7130 c3         1 1FW      -0.078400
     29 H1           0.2780     0.5470     2.1980 ha         1 1FW       0.175000
     30 H2           5.0790    -0.9300     2.3400 ha         1 1FW       0.162000
     31 H3           3.8280    -0.5320     4.4600 ha         1 1FW       0.156000
     32 H4           4.0020    -0.6550    -2.2170 h5         1 1FW       0.084800
     33 H5           0.4900     0.5180    -2.5800 h1         1 1FW       0.113700
     34 H6          -0.4100    -1.3830    -3.4160 hn         1 1FW       0.349500
     35 H7          -1.5320    -5.2200    -5.9120 h4         1 1FW       0.045100
     36 H8           1.0020    -5.7180    -6.5460 h4         1 1FW       0.183000
     37 H9           1.7500     1.3210    -4.5490 hc         1 1FW       0.064700
     38 H10          3.3360     0.9580    -3.7550 hc         1 1FW       0.064700
     39 H11          2.7760     2.5980    -1.9150 hc         1 1FW       0.054700
     40 H12          2.6220     3.6240    -4.8290 hc         1 1FW       0.044200
     41 H13          4.1220     3.2310    -3.8960 hc         1 1FW       0.044200
     42 H14          3.6390     5.6880    -3.9230 hc         1 1FW       0.042450
     43 H15          3.6260     5.0070    -2.2470 hc         1 1FW       0.042450
     44 H16          1.7130     6.5420    -2.5480 hc         1 1FW       0.040700
     45 H17          1.1700     5.6430    -4.0200 hc         1 1FW       0.040700
     46 H18          1.3000     4.5740    -1.1190 hc         1 1FW       0.042450
     47 H19         -0.1860     4.9610    -2.0730 hc         1 1FW       0.042450
     48 H20          0.3070     3.1660    -3.6900 hc         1 1FW       0.044200
     49 H21          0.3050     2.5110    -1.9980 hc         1 1FW       0.044200
@<TRIPOS>BOND
     1     1     2 2   
     2     2     3 1   
     3     2    11 1   
     4     3     4 ar  
     5     3     5 ar  
     6     4     9 ar  
     7     4    29 1   
     8     5     6 1   
     9     5     7 ar  
    10     6    12 2   
    11     7     8 ar  
    12     7    30 1   
    13     8     9 ar  
    14     8    31 1   
    15     9    10 1   
    16    11    12 1   
    17    11    13 1   
    18    12    32 1   
    19    13    14 1   
    20    13    22 1   
    21    13    33 1   
    22    14    15 1   
    23    14    21 2   
    24    15    16 1   
    25    15    34 1   
    26    16    17 2   
    27    16    20 1   
    28    17    18 1   
    29    18    19 2   
    30    18    35 1   
    31    19    20 1   
    32    19    36 1   
    33    22    23 1   
    34    22    37 1   
    35    22    38 1   
    36    23    24 1   
    37    23    28 1   
    38    23    39 1   
    39    24    25 1   
    40    24    40 1   
    41    24    41 1   
    42    25    26 1   
    43    25    42 1   
    44    25    43 1   
    45    26    27 1   
    46    26    44 1   
    47    26    45 1   
    48    27    28 1   
    49    27    46 1   
    50    27    47 1   
    51    28    48 1   
    52    28    49 1   
@<TRIPOS>SUBSTRUCTURE
     1 1FW         1 TEMP              0 ****  ****    0 ROOT
