@<TRIPOS>MOLECULE
molecule
   49    52     1     0     0
SMALL
bcc


@<TRIPOS>ATOM
      1 O26          0.0000     0.0000     0.0000 o          1 1FW      -0.626500
      2 C25          1.2170     0.0000     0.0000 c          1 1FW       0.715100
      3 C27          1.9820     0.0000     1.2560 ca         1 1FW      -0.181600
      4 C28          1.3530    -0.0000     2.5000 ca         1 1FW      -0.094000
      5 C5           3.3920     0.0000     1.1760 ca         1 1FW       0.185400
      6 N6           3.9800     0.0010    -0.0460 nc         1 1FW      -0.642100
      7 C4           4.1450    -0.0000     2.3510 ca         1 1FW      -0.096000
      8 C3           3.5070    -0.0010     3.5710 ca         1 1FW      -0.130000
      9 C2           2.1180    -0.0010     3.6480 ca         1 1FW       0.106900
     10 F1           1.5140    -0.0010     4.8570 f          1 1FW      -0.137900
     11 N8           1.9210    -0.0060    -1.1560 n          1 1FW      -0.365300
     12 C7           3.2800     0.0000    -1.1400 cd         1 1FW       0.528800
     13 C9           1.2110    -0.0120    -2.4380 c3         1 1FW       0.018700
     14 C17          1.4820    -1.3090    -3.1560 c          1 1FW       0.631100
     15 N19          0.9290    -1.5390    -4.3630 ns         1 1FW      -0.529400
     16 C20          1.1790    -2.7350    -5.0250 cc         1 1FW       0.567300
     17 N21          1.9230    -3.6950    -4.5700 nd         1 1FW      -0.683000
     18 C22          2.0520    -4.7640    -5.3340 cd         1 1FW       0.398200
     19 C23          1.3870    -4.7050    -6.4890 cc         1 1FW      -0.202400
     20 S24          0.5460    -3.1580    -6.5560 ss         1 1FW      -0.237300
     21 O18          2.1980    -2.1450    -2.6470 o          1 1FW      -0.512100
     22 C10          1.6970     1.1580    -3.2960 c3         1 1FW      -0.091400
     23 C11          1.3280     2.4770    -2.6160 c3         1 1FW      -0.072700
     24 C12          1.9400     3.6420    -3.3970 c3         1 1FW      -0.078400
     25 C13          1.5700     4.9620    -2.7160 c3         1 1FW      -0.076900
     26 C14          0.0480     5.1120    -2.6860 c3         1 1FW      -0.081400
     27 C15         -0.5630     3.9470    -1.9050 c3         1 1FW      -0.076900
     28 C16         -0.1940     2.6270    -2.5850 c3         1 1FW      -0.078400
     29 H1           0.2720     0.0000     2.5650 ha         1 1FW       0.168000
     30 H2           5.2270    -0.0010     2.3040 ha         1 1FW       0.157000
     31 H3           4.0940    -0.0010     4.4810 ha         1 1FW       0.150000
     32 H4           3.8060     0.0050    -2.0870 h5         1 1FW       0.063800
     33 H5           0.1460     0.0870    -2.2620 h1         1 1FW       0.121700
     34 H6           0.3040    -0.8680    -4.7630 hn         1 1FW       0.336500
     35 H7           2.6510    -5.6190    -5.0460 h4         1 1FW       0.051100
     36 H8           1.3630    -5.4750    -7.2500 h4         1 1FW       0.184000
     37 H9           1.2280     1.1100    -4.2710 hc         1 1FW       0.054700
     38 H10          2.7730     1.0990    -3.4100 hc         1 1FW       0.054700
     39 H11          1.7100     2.4850    -1.6020 hc         1 1FW       0.062700
     40 H12          3.0180     3.5370    -3.4150 hc         1 1FW       0.043450
     41 H13          1.5540     3.6390    -4.4090 hc         1 1FW       0.043450
     42 H14          1.9520     4.9640    -1.7030 hc         1 1FW       0.045200
     43 H15          2.0020     5.7860    -3.2720 hc         1 1FW       0.045200
     44 H16         -0.2120     6.0460    -2.2020 hc         1 1FW       0.042200
     45 H17         -0.3340     5.1060    -3.7000 hc         1 1FW       0.042200
     46 H18         -1.6410     4.0530    -1.8870 hc         1 1FW       0.045200
     47 H19         -0.1780     3.9500    -0.8930 hc         1 1FW       0.045200
     48 H20         -0.5760     2.6260    -3.5990 hc         1 1FW       0.043450
     49 H21         -0.6260     1.8030    -2.0300 hc         1 1FW       0.043450
@<TRIPOS>BOND
     1    25    26 1
     2    25    24 1
     3    26    27 1
     4    24    23 1
     5    27    28 1
     6     7     8 ar
     7     7     5 ar
     8     8     9 ar
     9    23    28 1
    10    23    22 1
    11     6     5 1
    12     6    12 2
    13     5     3 ar
    14     9    10 1
    15     9     4 ar
    16    12    11 1
    17    22    13 1
    18     3     4 ar
    19     3     2 1
    20    11     2 1
    21    11    13 1
    22     2     1 2
    23    13    14 1
    24    21    14 2
    25    14    15 1
    26    15    16 1
    27    16    20 1
    28    16    17 2
    29    20    19 1
    30    17    18 1
    31    19    18 2
    32     4    29 1
    33     7    30 1
    34     8    31 1
    35    12    32 1
    36    13    33 1
    37    15    34 1
    38    18    35 1
    39    19    36 1
    40    22    37 1
    41    22    38 1
    42    23    39 1
    43    24    40 1
    44    24    41 1
    45    25    42 1
    46    25    43 1
    47    26    44 1
    48    26    45 1
    49    27    46 1
    50    27    47 1
    51    28    48 1
    52    28    49 1
@<TRIPOS>SUBSTRUCTURE
     1 1FW         1 TEMP              0 ****  ****    0 ROOT
