@<TRIPOS>MOLECULE
1FX
   50    53     1     0     0
SMALL
bcc


@<TRIPOS>ATOM
      1 O28          0.1250     0.4380    -0.0430 o          1 1FX      -0.584500
      2 C27          1.3390     0.2030     0.0590 c          1 1FX       0.739100
      3 C29          2.0680     0.3450     1.3410 ca         1 1FX      -0.177600
      4 C30          1.3810     0.8110     2.4650 ca         1 1FX      -0.068000
      5 C5           3.4430     0.0230     1.4220 ca         1 1FX       0.100600
      6 N6           4.1010    -0.4420     0.2880 ns         1 1FX      -0.454100
      7 C4           4.1180     0.1750     2.6560 ca         1 1FX      -0.167000
      8 C3           3.4340     0.6340     3.7690 ca         1 1FX      -0.098000
      9 C2           2.0630     0.9550     3.6810 ca         1 1FX       0.082900
     10 F1           1.4060     1.4030     4.7780 f          1 1FX      -0.131900
     11 N10          2.0810    -0.2460    -1.0590 n          1 1FX      -0.475400
     12 C8           3.4600    -0.5580    -0.9540 c          1 1FX       0.819500
     13 O9           4.1250    -0.9650    -1.9330 o          1 1FX      -0.643500
     14 C11          1.4990    -0.2610    -2.3940 c3         1 1FX       0.054700
     15 C19          1.2210     1.1770    -2.9060 c          1 1FX       0.643100
     16 N21          0.9510     1.2890    -4.2630 ns         1 1FX      -0.525400
     17 C22          0.6500     2.4990    -4.8890 cc         1 1FX       0.481300
     18 N23          0.3310     2.5840    -6.2080 nd         1 1FX      -0.690000
     19 C24          0.0980     3.9040    -6.5250 cd         1 1FX       0.354200
     20 C25          0.2320     4.8060    -5.4790 cc         1 1FX      -0.318400
     21 S26          0.6540     4.0290    -4.0700 ss         1 1FX       0.027700
     22 O20          1.2650     2.1850    -2.1790 o          1 1FX      -0.572100
     23 C12          0.2120    -1.0920    -2.5190 c3         1 1FX      -0.090400
     24 C13          0.3710    -2.5390    -2.0790 c3         1 1FX      -0.060700
     25 C14         -0.9760    -3.2430    -2.2100 c3         1 1FX      -0.078900
     26 C15         -0.8780    -4.6990    -1.8050 c3         1 1FX      -0.074900
     27 C16          0.1810    -5.4230    -2.6090 c3         1 1FX      -0.078400
     28 C17          1.5220    -4.7290    -2.4930 c3         1 1FX      -0.074900
     29 C18          1.4310    -3.2700    -2.8900 c3         1 1FX      -0.078900
     30 H1           0.3100     1.0630     2.3840 ha         1 1FX       0.182000
     31 H2           5.0720    -0.6590     0.3220 hn         1 1FX       0.356500
     32 H3           5.1880    -0.0690     2.7380 ha         1 1FX       0.149000
     33 H4           3.9550     0.7550     4.7320 ha         1 1FX       0.158000
     34 H5           2.2750    -0.7160    -3.0920 h1         1 1FX       0.115700
     35 H6           0.9230     0.4660    -4.8250 hn         1 1FX       0.340500
     36 H7          -0.1730     4.1460    -7.5590 h4         1 1FX       0.042100
     37 H8           0.0810     5.8800    -5.5600 h4         1 1FX       0.181000
     38 H9          -0.1010    -1.0810    -3.5960 hc         1 1FX       0.070700
     39 H10         -0.6060    -0.6130    -1.9170 hc         1 1FX       0.070700
     40 H11          0.6700    -2.5660    -0.9940 hc         1 1FX       0.054700
     41 H12         -1.3300    -3.1730    -3.2720 hc         1 1FX       0.043950
     42 H13         -1.7320    -2.7230    -1.5660 hc         1 1FX       0.043950
     43 H14         -0.6310    -4.7670    -0.7130 hc         1 1FX       0.040950
     44 H15         -1.8720    -5.1950    -1.9560 hc         1 1FX       0.040950
     45 H16          0.2710    -6.4800    -2.2470 hc         1 1FX       0.040200
     46 H17         -0.1290    -5.4620    -3.6860 hc         1 1FX       0.040200
     47 H18          2.2710    -5.2460    -3.1470 hc         1 1FX       0.040950
     48 H19          1.8900    -4.8050    -1.4350 hc         1 1FX       0.040950
     49 H20          1.1850    -3.1930    -3.9810 hc         1 1FX       0.043950
     50 H21          2.4320    -2.7860    -2.7300 hc         1 1FX       0.043950
@<TRIPOS>BOND
     1     1     2 2   
     2     2     3 1   
     3     2    11 1   
     4     3     4 ar  
     5     3     5 ar  
     6     4     9 ar  
     7     4    30 1   
     8     5     6 1   
     9     5     7 ar  
    10     6    12 1   
    11     6    31 1   
    12     7     8 ar  
    13     7    32 1   
    14     8     9 ar  
    15     8    33 1   
    16     9    10 1   
    17    11    12 1   
    18    11    14 1   
    19    12    13 2   
    20    14    15 1   
    21    14    23 1   
    22    14    34 1   
    23    15    16 1   
    24    15    22 2   
    25    16    17 1   
    26    16    35 1   
    27    17    18 2   
    28    17    21 1   
    29    18    19 1   
    30    19    20 2   
    31    19    36 1   
    32    20    21 1   
    33    20    37 1   
    34    23    24 1   
    35    23    38 1   
    36    23    39 1   
    37    24    25 1   
    38    24    29 1   
    39    24    40 1   
    40    25    26 1   
    41    25    41 1   
    42    25    42 1   
    43    26    27 1   
    44    26    43 1   
    45    26    44 1   
    46    27    28 1   
    47    27    45 1   
    48    27    46 1   
    49    28    29 1   
    50    28    47 1   
    51    28    48 1   
    52    29    49 1   
    53    29    50 1   
@<TRIPOS>SUBSTRUCTURE
     1 1FX         1 TEMP              0 ****  ****    0 ROOT
