@<TRIPOS>MOLECULE
molecule
   50    53     1     0     0
SMALL
bcc


@<TRIPOS>ATOM
      1 O28          0.0000     0.0000     0.0000 o          1 1FX      -0.611500
      2 C27          1.2150     0.0000     0.0000 c          1 1FX       0.726100
      3 C29          1.9710     0.0000     1.2660 ca         1 1FX      -0.185600
      4 C30          1.3290     0.0000     2.5020 ca         1 1FX      -0.066000
      5 C5           3.3760     0.0000     1.2020 ca         1 1FX       0.089600
      6 N6           3.9870     0.0010    -0.0450 ns         1 1FX      -0.447100
      7 C4           4.1170     0.0010     2.3740 ca         1 1FX      -0.165000
      8 C3           3.4700     0.0010     3.5930 ca         1 1FX      -0.100000
      9 C2           2.0830     0.0000     3.6600 ca         1 1FX       0.088900
     10 F1           1.4670     0.0010     4.8620 f          1 1FX      -0.133900
     11 N10          1.9080    -0.0050    -1.1590 n          1 1FX      -0.454400
     12 C8           3.2510     0.0010    -1.1690 c          1 1FX       0.827500
     13 O9           3.8250     0.0010    -2.2410 o          1 1FX      -0.639500
     14 C11          1.1810    -0.0130    -2.4310 c3         1 1FX       0.048700
     15 C19          1.5350    -1.2550    -3.2060 c          1 1FX       0.644100
     16 N21          0.9820    -1.4760    -4.4140 ns         1 1FX      -0.530400
     17 C22          1.3090    -2.6230    -5.1290 cc         1 1FX       0.578300
     18 N23          2.1280    -3.5420    -4.7240 nd         1 1FX      -0.683000
     19 C24          2.3230    -4.5670    -5.5320 cd         1 1FX       0.399200
     20 C25          1.6370    -4.5100    -6.6760 cc         1 1FX      -0.207400
     21 S26          0.6840    -3.0280    -6.6680 ss         1 1FX      -0.247300
     22 O20          2.3180    -2.0560    -2.7420 o          1 1FX      -0.507100
     23 C12          1.5660     1.2240    -3.2460 c3         1 1FX      -0.100400
     24 C13          1.1300     2.4850    -2.4970 c3         1 1FX      -0.070700
     25 C14          1.6390     3.7220    -3.2400 c3         1 1FX      -0.079400
     26 C15          1.2010     4.9820    -2.4910 c3         1 1FX      -0.077400
     27 C16         -0.3260     5.0270    -2.4130 c3         1 1FX      -0.081400
     28 C17         -0.8340     3.7900    -1.6700 c3         1 1FX      -0.077400
     29 C18         -0.3980     2.5290    -2.4190 c3         1 1FX      -0.079400
     30 H1           0.2470    -0.0000     2.5550 ha         1 1FX       0.174000
     31 H2           4.9860     0.0050    -0.1070 hn         1 1FX       0.362500
     32 H3           5.1990     0.0010     2.3330 ha         1 1FX       0.147000
     33 H4           4.0510     0.0010     4.5080 ha         1 1FX       0.153000
     34 H5           0.1150    -0.0000    -2.2370 h1         1 1FX       0.112700
     35 H6           0.3030    -0.8370    -4.7780 hn         1 1FX       0.334500
     36 H7           2.9890    -5.3870    -5.2890 h4         1 1FX       0.048100
     37 H8           1.6580    -5.2490    -7.4680 h4         1 1FX       0.181000
     38 H9           1.0730     1.1890    -4.2100 hc         1 1FX       0.071700
     39 H10          2.6390     1.2430    -3.3890 hc         1 1FX       0.071700
     40 H11          1.5400     2.4750    -1.4940 hc         1 1FX       0.054700
     41 H12          1.2240     3.7360    -4.2410 hc         1 1FX       0.043950
     42 H13          2.7200     3.6910    -3.2920 hc         1 1FX       0.043950
     43 H14          1.6120     4.9650    -1.4880 hc         1 1FX       0.042450
     44 H15          1.5600     5.8570    -3.0190 hc         1 1FX       0.042450
     45 H16         -0.7370     5.0380    -3.4160 hc         1 1FX       0.040700
     46 H17         -0.6340     5.9180    -1.8810 hc         1 1FX       0.040700
     47 H18         -1.9160     3.8210    -1.6170 hc         1 1FX       0.042450
     48 H19         -0.4190     3.7760    -0.6690 hc         1 1FX       0.042450
     49 H20         -0.7560     1.6540    -1.8900 hc         1 1FX       0.043950
     50 H21         -0.8090     2.5450    -3.4210 hc         1 1FX       0.043950
@<TRIPOS>BOND
     1    26    27 1   
     2    26    25 1   
     3    27    28 1   
     4    10     9 1   
     5    25    24 1   
     6    28    29 1   
     7     9     4 ar  
     8     9     8 ar  
     9     4     3 ar  
    10     8     7 ar  
    11    24    29 1   
    12    24    23 1   
    13     1     2 2   
    14     3     2 1   
    15     3     5 ar  
    16     7     5 ar  
    17     2    11 1   
    18    23    14 1   
    19     5     6 1   
    20    11    14 1   
    21    11    12 1   
    22     6    12 1   
    23    14    15 1   
    24    12    13 2   
    25    22    15 2   
    26    15    16 1   
    27    16    17 1   
    28    17    21 1   
    29    17    18 2   
    30    21    20 1   
    31    18    19 1   
    32    20    19 2   
    33     4    30 1   
    34     6    31 1   
    35     7    32 1   
    36     8    33 1   
    37    14    34 1   
    38    16    35 1   
    39    19    36 1   
    40    20    37 1   
    41    23    38 1   
    42    23    39 1   
    43    24    40 1   
    44    25    41 1   
    45    25    42 1   
    46    26    43 1   
    47    26    44 1   
    48    27    45 1   
    49    27    46 1   
    50    28    47 1   
    51    28    48 1   
    52    29    49 1   
    53    29    50 1   
@<TRIPOS>SUBSTRUCTURE
     1 1FX         1 TEMP              0 ****  ****    0 ROOT
