@<TRIPOS>MOLECULE
1FX
   50    53     1     0     0
SMALL
bcc


@<TRIPOS>ATOM
      1 O28          0.0000     0.0000     0.0000 o          1 1FX      -0.653500
      2 C27          1.2150     0.0000     0.0000 c          1 1FX       0.648100
      3 C29          1.9710     0.0000     1.2660 ca         1 1FX      -0.195600
      4 C30          1.3290     0.0000     2.5020 ca         1 1FX      -0.021000
      5 C5           3.3760     0.0000     1.2020 ca         1 1FX      -0.062400
      6 N6           3.9870     0.0010    -0.0450 ns         1 1FX       0.012900
      7 C4           4.1170     0.0010     2.3740 ca         1 1FX      -0.135000
      8 C3           3.4700     0.0010     3.5930 ca         1 1FX      -0.062000
      9 C2           2.0830     0.0000     3.6600 ca         1 1FX       0.058900
     10 F1           1.4670     0.0010     4.8620 f          1 1FX      -0.122900
     11 N10          1.9080    -0.0050    -1.1590 n          1 1FX      -0.059400
     12 C8           3.2510     0.0010    -1.1690 c          1 1FX       0.604500
     13 O9           3.8250     0.0010    -2.2410 o          1 1FX      -0.688500
     14 C11          1.1810    -0.0130    -2.4310 c3         1 1FX      -0.061300
     15 C19          1.5350    -1.2550    -3.2060 c          1 1FX       0.541100
     16 N21          0.9820    -1.4760    -4.4140 ns         1 1FX      -0.067400
     17 C22          1.3090    -2.6230    -5.1290 cc         1 1FX       0.409300
     18 N23          2.1280    -3.5420    -4.7240 nd         1 1FX      -0.557000
     19 C24          2.3230    -4.5670    -5.5320 cd         1 1FX       0.386200
     20 C25          1.6370    -4.5100    -6.6760 cc         1 1FX      -0.136400
     21 S26          0.6840    -3.0280    -6.6680 ss         1 1FX      -0.332300
     22 O20          2.3180    -2.0560    -2.7420 o          1 1FX      -0.553100
     23 C12          1.5660     1.2240    -3.2460 c3         1 1FX      -0.064400
     24 C13          1.1300     2.4850    -2.4970 c3         1 1FX      -0.051700
     25 C14          1.6390     3.7220    -3.2400 c3         1 1FX      -0.030900
     26 C15          1.2010     4.9820    -2.4910 c3         1 1FX      -0.021400
     27 C16         -0.3260     5.0270    -2.4130 c3         1 1FX      -0.026400
     28 C17         -0.8340     3.7900    -1.6700 c3         1 1FX      -0.021400
     29 C18         -0.3980     2.5290    -2.4190 c3         1 1FX      -0.030900
     30 H1           0.2470    -0.0000     2.5550 ha         1 1FX       0.141000
     31 H2           4.9860     0.0050    -0.1070 hn         1 1FX       0.195500
     32 H3           5.1990     0.0010     2.3330 ha         1 1FX       0.119000
     33 H4           4.0510     0.0010     4.5080 ha         1 1FX       0.120000
     34 H5           0.1150    -0.0000    -2.2370 h1         1 1FX       0.088700
     35 H6           0.3030    -0.8370    -4.7780 hn         1 1FX       0.174500
     36 H7           2.9890    -5.3870    -5.2890 h4         1 1FX       0.002100
     37 H8           1.6580    -5.2490    -7.4680 h4         1 1FX       0.161000
     38 H9           1.0730     1.1890    -4.2100 hc         1 1FX       0.048700
     39 H10          2.6390     1.2430    -3.3890 hc         1 1FX       0.048700
     40 H11          1.5400     2.4750    -1.4940 hc         1 1FX       0.027700
     41 H12          1.2240     3.7360    -4.2410 hc         1 1FX       0.020200
     42 H13          2.7200     3.6910    -3.2920 hc         1 1FX       0.020200
     43 H14          1.6120     4.9650    -1.4880 hc         1 1FX       0.014200
     44 H15          1.5600     5.8570    -3.0190 hc         1 1FX       0.014200
     45 H16         -0.7370     5.0380    -3.4160 hc         1 1FX       0.013700
     46 H17         -0.6340     5.9180    -1.8810 hc         1 1FX       0.013700
     47 H18         -1.9160     3.8210    -1.6170 hc         1 1FX       0.014200
     48 H19         -0.4190     3.7760    -0.6690 hc         1 1FX       0.014200
     49 H20         -0.7560     1.6540    -1.8900 hc         1 1FX       0.020200
     50 H21         -0.8090     2.5450    -3.4210 hc         1 1FX       0.020200
@<TRIPOS>BOND
     1     1     2 2   
     2     2     3 1   
     3     2    11 1   
     4     3     4 ar  
     5     3     5 ar  
     6     4     9 ar  
     7     4    30 1   
     8     5     6 1   
     9     5     7 ar  
    10     6    12 1   
    11     6    31 1   
    12     7     8 ar  
    13     7    32 1   
    14     8     9 ar  
    15     8    33 1   
    16     9    10 1   
    17    11    12 1   
    18    11    14 1   
    19    12    13 2   
    20    14    15 1   
    21    14    23 1   
    22    14    34 1   
    23    15    16 1   
    24    15    22 2   
    25    16    17 1   
    26    16    35 1   
    27    17    18 2   
    28    17    21 1   
    29    18    19 1   
    30    19    20 2   
    31    19    36 1   
    32    20    21 1   
    33    20    37 1   
    34    23    24 1   
    35    23    38 1   
    36    23    39 1   
    37    24    25 1   
    38    24    29 1   
    39    24    40 1   
    40    25    26 1   
    41    25    41 1   
    42    25    42 1   
    43    26    27 1   
    44    26    43 1   
    45    26    44 1   
    46    27    28 1   
    47    27    45 1   
    48    27    46 1   
    49    28    29 1   
    50    28    47 1   
    51    28    48 1   
    52    29    49 1   
    53    29    50 1   
@<TRIPOS>SUBSTRUCTURE
     1 1FX         1 TEMP              0 ****  ****    0 ROOT
