@<TRIPOS>MOLECULE
molecule
   53    55     1     0     0
SMALL
bcc


@<TRIPOS>ATOM
      1 O18          0.0000     0.0000     0.0000 o          1 1FY      -0.514100
      2 C17          1.2130     0.0000     0.0000 c          1 1FY       0.640100
      3 N19          1.8870     0.0000     1.1670 ns         1 1FY      -0.532400
      4 C20          1.1930     0.0000     2.3710 cc         1 1FY       0.578300
      5 N21         -0.0990    -0.0060     2.4830 nd         1 1FY      -0.686000
      6 C22         -0.5920    -0.0060     3.7070 cd         1 1FY       0.399200
      7 C23          0.3260     0.0000     4.6750 cc         1 1FY      -0.208400
      8 S24          1.9170    -0.0010     3.9190 ss         1 1FY      -0.247300
      9 C9           1.9660    -0.0060    -1.3050 c3         1 1FY       0.052700
     10 N8           1.0140    -0.0110    -2.4190 n          1 1FY      -0.460800
     11 C7           1.0000    -1.1750    -3.2940 c3         1 1FY       0.095000
     12 C6          -0.3400    -1.2910    -4.0210 c3         1 1FY       0.222800
     13 N5          -0.6870     0.0340    -4.5600 n3         1 1FY      -0.829500
     14 S2          -0.8640     0.2830    -6.1870 s6         1 1FY       1.326900
     15 O4          -0.0530    -0.7180    -6.7860 o          1 1FY      -0.624800
     16 C1          -2.6200    -0.0450    -6.5070 c3         1 1FY      -0.246300
     17 O3          -0.5760     1.6640    -6.3630 o          1 1FY      -0.624800
     18 C27         -0.8720     1.1270    -3.5940 c3         1 1FY       0.169800
     19 C25          0.2160     1.0500    -2.5570 c          1 1FY       0.716500
     20 O26          0.3710     1.9920    -1.8090 o          1 1FY      -0.636500
     21 C10          2.8460     1.2430    -1.3920 c3         1 1FY      -0.107400
     22 C11          3.7340     1.1560    -2.6350 c3         1 1FY      -0.064700
     23 C12          2.8830     1.3710    -3.8880 c3         1 1FY      -0.084400
     24 C13          3.7720     1.2830    -5.1290 c3         1 1FY      -0.079900
     25 C14          4.8550     2.3610    -5.0580 c3         1 1FY      -0.079400
     26 C15          5.7070     2.1440    -3.8060 c3         1 1FY      -0.079900
     27 C16          4.8190     2.2320    -2.5640 c3         1 1FY      -0.084400
     28 H1           2.8870    -0.0390     1.1660 hn         1 1FY       0.333500
     29 H2          -1.6560    -0.0090     3.9100 h4         1 1FY       0.047100
     30 H3           0.1270     0.0000     5.7400 h4         1 1FY       0.181000
     31 H4           2.5890    -0.8910    -1.3580 h1         1 1FY       0.070700
     32 H5           1.1610    -2.0670    -2.7000 h1         1 1FY       0.056700
     33 H6           1.7940    -1.0790    -4.0250 h1         1 1FY       0.056700
     34 H7          -1.1050    -1.6140    -3.3250 h1         1 1FY       0.068700
     35 H8          -0.2530    -2.0030    -4.8330 h1         1 1FY       0.068700
     36 H9          -3.2240     0.7030    -6.0080 h1         1 1FY       0.098367
     37 H10         -2.8780    -1.0280    -6.1320 h1         1 1FY       0.098367
     38 H11         -2.8060    -0.0060    -7.5740 h1         1 1FY       0.098367
     39 H12         -1.8370     1.0260    -3.1130 h1         1 1FY       0.090700
     40 H13         -0.8140     2.0790    -4.1080 h1         1 1FY       0.090700
     41 H14          3.4670     1.3100    -0.5070 hc         1 1FY       0.076200
     42 H15          2.2170     2.1230    -1.4590 hc         1 1FY       0.076200
     43 H16          4.2010     0.1790    -2.6820 hc         1 1FY       0.039700
     44 H17          2.1170     0.6060    -3.9390 hc         1 1FY       0.048200
     45 H18          2.4200     2.3500    -3.8450 hc         1 1FY       0.048200
     46 H19          3.1680     1.4380    -6.0160 hc         1 1FY       0.040450
     47 H20          4.2380     0.3060    -5.1700 hc         1 1FY       0.040450
     48 H21          4.3890     3.3380    -5.0120 hc         1 1FY       0.042200
     49 H22          5.4850     2.2960    -5.9370 hc         1 1FY       0.042200
     50 H23          6.1690     1.1650    -3.8500 hc         1 1FY       0.040450
     51 H24          6.4730     2.9090    -3.7550 hc         1 1FY       0.040450
     52 H25          5.4230     2.0770    -1.6780 hc         1 1FY       0.048200
     53 H26          4.3540     3.2100    -2.5220 hc         1 1FY       0.048200
@<TRIPOS>BOND
     1    24    25 1
     2    24    23 1
     3    25    26 1
     4    23    22 1
     5    26    27 1
     6    17    14 2
     7    22    27 1
     8    22    21 1
     9    15    14 2
    10    12    13 1
    11    12    11 1
    12    14    13 1
    13    14    16 1
    14    13    18 1
    15    21     9 1
    16    18    19 1
    17    11    10 1
    18    10    19 1
    19    10     9 1
    20    19    20 2
    21     9     2 1
    22     2     1 2
    23     2     3 1
    24     3     4 1
    25     4     8 1
    26     4     5 2
    27     8     7 1
    28     5     6 1
    29     6     7 2
    30     3    28 1
    31     6    29 1
    32     7    30 1
    33     9    31 1
    34    11    32 1
    35    11    33 1
    36    12    34 1
    37    12    35 1
    38    16    36 1
    39    16    37 1
    40    16    38 1
    41    18    39 1
    42    18    40 1
    43    21    41 1
    44    21    42 1
    45    22    43 1
    46    23    44 1
    47    23    45 1
    48    24    46 1
    49    24    47 1
    50    25    48 1
    51    25    49 1
    52    26    50 1
    53    26    51 1
    54    27    52 1
    55    27    53 1
@<TRIPOS>SUBSTRUCTURE
     1 1FY         1 TEMP              0 ****  ****    0 ROOT
