@<TRIPOS>MOLECULE
1FY
   53    55     1     0     0
SMALL
bcc


@<TRIPOS>ATOM
      1 O18          0.8910     1.3430     0.2250 o          1 1FY      -0.590100
      2 C17          1.4810     0.3410    -0.2180 c          1 1FY       0.626100
      3 N19          1.3930    -0.8950     0.3980 ns         1 1FY      -0.522400
      4 C20          0.6480    -1.1260     1.5550 cc         1 1FY       0.481300
      5 N21          0.5260    -2.3530     2.1230 nd         1 1FY      -0.683000
      6 C22         -0.2660    -2.2510     3.2450 cd         1 1FY       0.353200
      7 C23         -0.7430    -0.9790     3.5300 cc         1 1FY      -0.313400
      8 S24         -0.2110     0.1240     2.4040 ss         1 1FY       0.004700
      9 C9           2.3510     0.4010    -1.5040 c3         1 1FY       0.044700
     10 N8           1.6920    -0.2730    -2.6070 n          1 1FY      -0.457800
     11 C7           0.6470     0.4360    -3.3110 c3         1 1FY       0.071000
     12 C6           0.0840    -0.3080    -4.5420 c3         1 1FY       0.208800
     13 N5          -0.0740    -1.7210    -4.3320 n3         1 1FY      -0.816500
     14 S2          -1.4830    -2.5160    -4.5780 s6         1 1FY       1.466900
     15 O4          -2.3310    -1.7230    -5.3750 o          1 1FY      -0.644300
     16 C1          -2.1550    -2.6110    -3.0220 c3         1 1FY      -0.374300
     17 O3          -1.2170    -3.8260    -5.0150 o          1 1FY      -0.644300
     18 C27          1.1200    -2.3730    -3.8810 c3         1 1FY       0.163800
     19 C25          1.8420    -1.6480    -2.7410 c          1 1FY       0.681500
     20 O26          2.5980    -2.2900    -1.9840 o          1 1FY      -0.645500
     21 C10          2.7110     1.8720    -1.7450 c3         1 1FY      -0.078400
     22 C11          3.7210     2.0750    -2.8620 c3         1 1FY      -0.065700
     23 C12          3.7090     3.5370    -3.2950 c3         1 1FY      -0.074900
     24 C13          4.7240     3.7940    -4.3900 c3         1 1FY      -0.076400
     25 C14          6.1150     3.3730    -3.9650 c3         1 1FY      -0.077400
     26 C15          6.1350     1.9250    -3.5190 c3         1 1FY      -0.076400
     27 C16          5.1220     1.6710    -2.4230 c3         1 1FY      -0.074900
     28 H1           1.9030    -1.6700     0.0120 hn         1 1FY       0.364500
     29 H2          -0.4620    -3.1620     3.8230 h4         1 1FY       0.043100
     30 H3          -1.3800    -0.7280     4.3750 h4         1 1FY       0.181000
     31 H4           3.3170    -0.1620    -1.3000 h1         1 1FY       0.104700
     32 H5          -0.1920     0.6630    -2.5910 h1         1 1FY       0.059700
     33 H6           1.0630     1.4190    -3.6790 h1         1 1FY       0.059700
     34 H7           0.7830    -0.1400    -5.4130 h1         1 1FY       0.073700
     35 H8          -0.9130     0.1500    -4.8030 h1         1 1FY       0.073700
     36 H9          -1.5290    -3.1830    -2.2940 h1         1 1FY       0.120033
     37 H10         -3.1420    -3.1410    -3.0580 h1         1 1FY       0.120033
     38 H11         -2.3590    -1.6160    -2.5550 h1         1 1FY       0.120033
     39 H12          0.8800    -3.4180    -3.5270 h1         1 1FY       0.092700
     40 H13          1.8680    -2.4540    -4.7260 h1         1 1FY       0.092700
     41 H14          1.7790     2.4620    -1.9500 hc         1 1FY       0.067700
     42 H15          3.1330     2.2660    -0.7810 hc         1 1FY       0.067700
     43 H16          3.4340     1.4460    -3.7510 hc         1 1FY       0.052700
     44 H17          2.6850     3.8090    -3.6620 hc         1 1FY       0.041700
     45 H18          3.9360     4.1870    -2.4100 hc         1 1FY       0.041700
     46 H19          4.7230     4.8850    -4.6480 hc         1 1FY       0.041450
     47 H20          4.4290     3.2290    -5.3130 hc         1 1FY       0.041450
     48 H21          6.8280     3.5140    -4.8180 hc         1 1FY       0.041700
     49 H22          6.4630     4.0280    -3.1230 hc         1 1FY       0.041700
     50 H23          5.9130     1.2610    -4.3960 hc         1 1FY       0.041450
     51 H24          7.1600     1.6600    -3.1480 hc         1 1FY       0.041450
     52 H25          5.1350     0.5830    -2.1510 hc         1 1FY       0.041700
     53 H26          5.4080     2.2520    -1.5070 hc         1 1FY       0.041700
@<TRIPOS>BOND
     1     1     2 2   
     2     2     3 1   
     3     2     9 1   
     4     3     4 1   
     5     3    28 1   
     6     4     5 2   
     7     4     8 1   
     8     5     6 1   
     9     6     7 2   
    10     6    29 1   
    11     7     8 1   
    12     7    30 1   
    13     9    10 1   
    14     9    21 1   
    15     9    31 1   
    16    10    11 1   
    17    10    19 1   
    18    11    12 1   
    19    11    32 1   
    20    11    33 1   
    21    12    13 1   
    22    12    34 1   
    23    12    35 1   
    24    13    14 1   
    25    13    18 1   
    26    14    15 2   
    27    14    16 1   
    28    14    17 2   
    29    16    36 1   
    30    16    37 1   
    31    16    38 1   
    32    18    19 1   
    33    18    39 1   
    34    18    40 1   
    35    19    20 2   
    36    21    22 1   
    37    21    41 1   
    38    21    42 1   
    39    22    23 1   
    40    22    27 1   
    41    22    43 1   
    42    23    24 1   
    43    23    44 1   
    44    23    45 1   
    45    24    25 1   
    46    24    46 1   
    47    24    47 1   
    48    25    26 1   
    49    25    48 1   
    50    25    49 1   
    51    26    27 1   
    52    26    50 1   
    53    26    51 1   
    54    27    52 1   
    55    27    53 1   
@<TRIPOS>SUBSTRUCTURE
     1 1FY         1 TEMP              0 ****  ****    0 ROOT
