@<TRIPOS>MOLECULE
1FY
   53    55     1     0     0
SMALL
bcc


@<TRIPOS>ATOM
      1 O18          0.0000     0.0000     0.0000 o          1 1FY      -0.556100
      2 C17          1.2130     0.0000     0.0000 c          1 1FY       0.536100
      3 N19          1.8870     0.0000     1.1670 ns         1 1FY      -0.071400
      4 C20          1.1930     0.0000     2.3710 cc         1 1FY       0.410300
      5 N21         -0.0990    -0.0060     2.4830 nd         1 1FY      -0.561000
      6 C22         -0.5920    -0.0060     3.7070 cd         1 1FY       0.387200
      7 C23          0.3260     0.0000     4.6750 cc         1 1FY      -0.138400
      8 S24          1.9170    -0.0010     3.9190 ss         1 1FY      -0.333300
      9 C9           1.9660    -0.0060    -1.3050 c3         1 1FY      -0.032300
     10 N8           1.0140    -0.0110    -2.4190 n          1 1FY      -0.105800
     11 C7           1.0000    -1.1750    -3.2940 c3         1 1FY       0.026000
     12 C6          -0.3400    -1.2910    -4.0210 c3         1 1FY       0.229800
     13 N5          -0.6870     0.0340    -4.5600 n3         1 1FY      -0.562500
     14 S2          -0.8640     0.2830    -6.1870 s6         1 1FY       0.968900
     15 O4          -0.0530    -0.7180    -6.7860 o          1 1FY      -0.580800
     16 C1          -2.6200    -0.0450    -6.5070 c3         1 1FY       0.016700
     17 O3          -0.5760     1.6640    -6.3630 o          1 1FY      -0.580800
     18 C27         -0.8720     1.1270    -3.5940 c3         1 1FY       0.170800
     19 C25          0.2160     1.0500    -2.5570 c          1 1FY       0.635500
     20 O26          0.3710     1.9920    -1.8090 o          1 1FY      -0.680500
     21 C10          2.8460     1.2430    -1.3920 c3         1 1FY      -0.083400
     22 C11          3.7340     1.1560    -2.6350 c3         1 1FY      -0.040700
     23 C12          2.8830     1.3710    -3.8880 c3         1 1FY      -0.048900
     24 C13          3.7720     1.2830    -5.1290 c3         1 1FY      -0.021900
     25 C14          4.8550     2.3610    -5.0580 c3         1 1FY      -0.024400
     26 C15          5.7070     2.1440    -3.8060 c3         1 1FY      -0.021900
     27 C16          4.8190     2.2320    -2.5640 c3         1 1FY      -0.048900
     28 H1           2.8870    -0.0390     1.1660 hn         1 1FY       0.174500
     29 H2          -1.6560    -0.0090     3.9100 h4         1 1FY       0.001100
     30 H3           0.1270     0.0000     5.7400 h4         1 1FY       0.160000
     31 H4           2.5890    -0.8910    -1.3580 h1         1 1FY       0.040700
     32 H5           1.1610    -2.0670    -2.7000 h1         1 1FY       0.029700
     33 H6           1.7940    -1.0790    -4.0250 h1         1 1FY       0.029700
     34 H7          -1.1050    -1.6140    -3.3250 h1         1 1FY       0.032700
     35 H8          -0.2530    -2.0030    -4.8330 h1         1 1FY       0.032700
     36 H9          -3.2240     0.7030    -6.0080 h1         1 1FY       0.062367
     37 H10         -2.8780    -1.0280    -6.1320 h1         1 1FY       0.062367
     38 H11         -2.8060    -0.0060    -7.5740 h1         1 1FY       0.062367
     39 H12         -1.8370     1.0260    -3.1130 h1         1 1FY       0.052200
     40 H13         -0.8140     2.0790    -4.1080 h1         1 1FY       0.052200
     41 H14          3.4670     1.3100    -0.5070 hc         1 1FY       0.056700
     42 H15          2.2170     2.1230    -1.4590 hc         1 1FY       0.056700
     43 H16          4.2010     0.1790    -2.6820 hc         1 1FY       0.019700
     44 H17          2.1170     0.6060    -3.9390 hc         1 1FY       0.026200
     45 H18          2.4200     2.3500    -3.8450 hc         1 1FY       0.026200
     46 H19          3.1680     1.4380    -6.0160 hc         1 1FY       0.013200
     47 H20          4.2380     0.3060    -5.1700 hc         1 1FY       0.013200
     48 H21          4.3890     3.3380    -5.0120 hc         1 1FY       0.014200
     49 H22          5.4850     2.2960    -5.9370 hc         1 1FY       0.014200
     50 H23          6.1690     1.1650    -3.8500 hc         1 1FY       0.013200
     51 H24          6.4730     2.9090    -3.7550 hc         1 1FY       0.013200
     52 H25          5.4230     2.0770    -1.6780 hc         1 1FY       0.026200
     53 H26          4.3540     3.2100    -2.5220 hc         1 1FY       0.026200
@<TRIPOS>BOND
     1     1     2 2   
     2     2     3 1   
     3     2     9 1   
     4     3     4 1   
     5     3    28 1   
     6     4     5 2   
     7     4     8 1   
     8     5     6 1   
     9     6     7 2   
    10     6    29 1   
    11     7     8 1   
    12     7    30 1   
    13     9    10 1   
    14     9    21 1   
    15     9    31 1   
    16    10    11 1   
    17    10    19 1   
    18    11    12 1   
    19    11    32 1   
    20    11    33 1   
    21    12    13 1   
    22    12    34 1   
    23    12    35 1   
    24    13    14 1   
    25    13    18 1   
    26    14    15 2   
    27    14    16 1   
    28    14    17 2   
    29    16    36 1   
    30    16    37 1   
    31    16    38 1   
    32    18    19 1   
    33    18    39 1   
    34    18    40 1   
    35    19    20 2   
    36    21    22 1   
    37    21    41 1   
    38    21    42 1   
    39    22    23 1   
    40    22    27 1   
    41    22    43 1   
    42    23    24 1   
    43    23    44 1   
    44    23    45 1   
    45    24    25 1   
    46    24    46 1   
    47    24    47 1   
    48    25    26 1   
    49    25    48 1   
    50    25    49 1   
    51    26    27 1   
    52    26    50 1   
    53    26    51 1   
    54    27    52 1   
    55    27    53 1   
@<TRIPOS>SUBSTRUCTURE
     1 1FY         1 TEMP              0 ****  ****    0 ROOT
