@<TRIPOS>MOLECULE
molecule
   43    44     1     0     0
SMALL
bcc


@<TRIPOS>ATOM
      1 O2           0.0000     0.0000     0.0000 o          1 1FZ      -0.655500
      2 O4           4.3700     0.0020    -0.7860 o          1 1FZ      -0.731500
      3 C4           3.4400     0.0000     0.0000 c          1 1FZ       0.693700
      4 C5           3.6830     0.0000     1.3960 cc         1 1FZ      -0.347400
      5 C6           2.6340    -0.0040     2.2450 cd         1 1FZ      -0.106400
      6 C5M          5.0950     0.0030     1.9240 c3         1 1FZ       0.020100
      7 N3           2.1690     0.0020    -0.4500 ns         1 1FZ      -0.568500
      8 C2           1.1420    -0.0020     0.4200 c          1 1FZ       0.806500
      9 N1           1.3590    -0.0080     1.7470 n          1 1FZ      -0.340000
     10 C1'          0.2200    -0.0120     2.6690 c3         1 1FZ       0.321500
     11 C2'         -0.5800     1.2960     2.5190 c3         1 1FZ      -0.156400
     12 C3'         -2.0050     0.8270     2.1330 c3         1 1FZ       0.106100
     13 O3'         -2.9970     1.5970     2.8140 oh         1 1FZ      -0.608800
     14 O4'         -0.6640    -1.0970     2.3490 os         1 1FZ      -0.358600
     15 C4'         -2.0070    -0.6420     2.6300 c3         1 1FZ       0.140100
     16 C5'         -3.0320    -1.4710     1.8530 c3         1 1FZ       0.221400
     17 O5'         -3.0980    -2.7870     2.4060 os         1 1FZ      -0.581200
     18 PA          -4.0750    -3.9310     1.8340 p5         1 1FZ       1.250700
     19 O1A         -5.4180    -3.3580     1.5950 o          1 1FZ      -0.795500
     20 O2A         -4.1850    -5.1280     2.9050 o          1 1FZ      -0.795500
     21 N3A         -3.4540    -4.5280     0.3870 n7         1 1FZ      -0.921400
     22 PB          -4.4470    -5.7290    -0.2460 p5         1 1FZ       1.385700
     23 O1B         -5.9120    -5.1220    -0.5250 o          1 1FZ      -0.808500
     24 O2B         -4.5520    -6.8440     0.7210 o          1 1FZ      -0.808500
     25 O3B         -3.8200    -6.2730    -1.6260 os         1 1FZ      -0.734800
     26 PG          -4.2700    -7.3890    -2.6960 p5         1 1FZ       1.334900
     27 O1G         -3.9840    -8.8540    -2.0940 o          1 1FZ      -0.854833
     28 O3G         -5.7150    -7.2450    -2.9810 o          1 1FZ      -0.854833
     29 O2G         -3.4320    -7.1940    -4.0570 o          1 1FZ      -0.854833
     30 H2           5.6150    -0.8780     1.5690 hc         1 1FZ       0.012033
     31 H3           5.6090     0.8910     1.5750 hc         1 1FZ       0.012033
     32 H4           5.0750    -0.0000     3.0070 hc         1 1FZ       0.012033
     33 H6           0.5680    -0.1120     3.6900 h2         1 1FZ       0.046700
     34 H7          -0.1580     1.9090     1.7310 hc         1 1FZ       0.042700
     35 H8          -0.6010     1.8360     3.4580 hc         1 1FZ       0.042700
     36 H9          -2.1440     0.8680     1.0600 h1         1 1FZ       0.080700
     37 H10         -3.3210     2.2710     2.2390 ho         1 1FZ       0.384000
     38 H11         -2.2050    -0.6810     3.6940 h1         1 1FZ       0.053700
     39 H12         -2.7350    -1.5310     0.8130 h1         1 1FZ       0.040700
     40 H13         -4.0060    -1.0010     1.9230 h1         1 1FZ       0.040700
     41 H15         -2.4640    -4.5720     0.2480 hn         1 1FZ       0.368800
     42 H1           2.8000    -0.0060     3.3160 h4         1 1FZ       0.127000
     43 H5           1.9890     0.0060    -1.4340 hn         1 1FZ       0.341500
@<TRIPOS>BOND
     1    28    26 1   
     2    27    26 1   
     3    29    26 1   
     4    26    25 1   
     5    19    18 1   
     6    25    22 1   
     7    24    22 1   
     8    22    21 1   
     9    22    23 1   
    10    18    21 1   
    11    18    20 1   
    12    18    17 1   
    13    16    17 1   
    14    16    15 1   
    15    13    12 1   
    16    15    12 1   
    17    15    14 1   
    18    12    11 1   
    19    14    10 1   
    20     6     4 1   
    21    11    10 1   
    22     5     4 2   
    23     5     9 1   
    24    10     9 1   
    25     4     3 1   
    26     9     8 1   
    27     3     2 2   
    28     3     7 1   
    29     8     7 1   
    30     8     1 2   
    31     5    42 1   
    32     6    30 1   
    33     6    31 1   
    34     6    32 1   
    35     7    43 1   
    36    10    33 1   
    37    11    34 1   
    38    11    35 1   
    39    12    36 1   
    40    13    37 1   
    41    15    38 1   
    42    16    39 1   
    43    16    40 1   
    44    21    41 1   
@<TRIPOS>SUBSTRUCTURE
     1 1FZ         1 TEMP              0 ****  ****    0 ROOT
