@<TRIPOS>MOLECULE
molecule
   44    45     1     0     0
SMALL
bcc


@<TRIPOS>ATOM
      1 O2           0.0000     0.0000     0.0000 o          1 1FZ      -0.672500
      2 O4           4.4350     0.0090    -0.8290 o          1 1FZ      -0.692500
      3 C4           3.4810     0.0000     0.0000 c          1 1FZ       0.721700
      4 C5           3.7320     0.0000     1.4910 cc         1 1FZ      -0.301400
      5 C6           2.6250    -0.0040     2.3320 cd         1 1FZ       0.080600
      6 C5M          5.1250    -0.0030     2.0860 c3         1 1FZ      -0.034900
      7 N3           2.1980    -0.0060    -0.4180 ns         1 1FZ      -0.599500
      8 C2           1.1630     0.0140     0.4380 c          1 1FZ       0.800500
      9 N1           1.3660     0.0150     1.8470 n          1 1FZ      -0.366000
     10 C1'          0.1850    -0.0020     2.7480 c3         1 1FZ       0.306500
     11 C2'         -0.0420    -1.4000     3.2650 c3         1 1FZ      -0.173400
     12 C3'          0.5750    -1.3800     4.6510 c3         1 1FZ       0.151100
     13 O3'         -0.0780    -2.3300     5.4870 oh         1 1FZ      -0.637800
     14 O4'          0.3510     0.8410     3.8990 os         1 1FZ      -0.429600
     15 C4'          0.3550     0.0480     5.1060 c3         1 1FZ       0.079100
     16 C5'          1.4080     0.5580     6.0710 c3         1 1FZ       0.192400
     17 O5'          2.6810     0.3720     5.4770 os         1 1FZ      -0.596200
     18 PA           3.9870    -0.1770     6.3010 p5         1 1FZ       1.428700
     19 O1A          5.2310     0.4110     5.6330 o          1 1FZ      -0.859000
     20 O2A          3.8630     0.2390     7.7710 o          1 1FZ      -0.859000
     21 N3A          4.0170    -1.7840     6.2590 ny         1 1FZ      -0.779200
     22 PB           3.0990    -2.8130     7.1390 p5         1 1FZ       1.451700
     23 O1B          2.1810    -3.6940     6.3410 o          1 1FZ      -0.885500
     24 O2B          2.2410    -2.1710     8.1950 o          1 1FZ      -0.885500
     25 O3B          4.2360    -3.7840     7.7160 os         1 1FZ      -0.732800
     26 PG           5.1040    -3.3900     9.0200 p5         1 1FZ       1.402900
     27 O1G          6.5120    -3.8980     8.7890 o          1 1FZ      -0.876500
     28 O3G          4.5260    -4.1100    10.1890 o          1 1FZ      -0.876500
     29 O2G          5.0180    -1.8940     9.2450 o          1 1FZ      -0.876500
     30 H2           5.2830    -0.9260     2.6310 hc         1 1FZ       0.052700
     31 H3           5.8570     0.0770     1.2920 hc         1 1FZ       0.052700
     32 H4           5.2310     0.8380     2.7610 hc         1 1FZ       0.052700
     33 H6          -0.6920     0.3190     2.1980 h2         1 1FZ       0.117700
     34 H7          -1.1030    -1.6140     3.3250 hc         1 1FZ       0.115700
     35 H8           0.4630    -2.1230     2.6350 hc         1 1FZ       0.115700
     36 H9           1.6360    -1.5930     4.5890 h1         1 1FZ       0.069700
     37 H10         -0.8360    -2.6720     5.0430 ho         1 1FZ       0.484000
     38 H11         -0.6190     0.1190     5.5740 h1         1 1FZ       0.066700
     39 H12          1.3530     0.0020     6.9990 h1         1 1FZ       0.023200
     40 H13          1.2460     1.6120     6.2660 h1         1 1FZ       0.023200
     41 H15          3.8500    -2.0290     5.3030 hn         1 1FZ       0.392300
     42 H5           2.0110    -0.0270    -1.4010 hn         1 1FZ       0.323500
     43 H3A2         4.9650    -2.0380     6.4570 hn         1 1FZ       0.392300
     44 H1           2.7780    -0.0220     3.4050 h4         1 1FZ       0.237000
@<TRIPOS>BOND
     1    28    26 1   
     2    27    26 1   
     3    29    26 1   
     4    26    25 1   
     5    19    18 1   
     6    25    22 1   
     7    24    22 1   
     8    22    21 1   
     9    22    23 1   
    10    18    21 1   
    11    18    20 1   
    12    18    17 1   
    13    16    17 1   
    14    16    15 1   
    15    13    12 1   
    16    15    12 1   
    17    15    14 1   
    18    12    11 1   
    19    14    10 1   
    20     6     4 1   
    21    11    10 1   
    22     5     4 2   
    23     5     9 1   
    24    10     9 1   
    25     4     3 1   
    26     9     8 1   
    27     3     2 2   
    28     3     7 1   
    29     8     7 1   
    30     8     1 2   
    31     5    44 1   
    32     6    30 1   
    33     6    31 1   
    34     6    32 1   
    35     7    42 1   
    36    10    33 1   
    37    11    34 1   
    38    11    35 1   
    39    12    36 1   
    40    13    37 1   
    41    15    38 1   
    42    16    39 1   
    43    16    40 1   
    44    21    41 1   
    45    43    21 1   
@<TRIPOS>SUBSTRUCTURE
     1 1FZ         1 TEMP              0 ****  ****    0 ROOT
