@<TRIPOS>MOLECULE
1G0
   48    52     1     0     0
SMALL
bcc


@<TRIPOS>ATOM
      1 O1           0.4120    -0.3860     0.2720 oh         1 1G0      -0.585800
      2 C2           1.6930     0.1480     0.0460 cy         1 1G0       0.121100
      3 C4           2.5470     0.4010     1.3180 cy         1 1G0      -0.099400
      4 C5           3.5770    -0.6500     0.8330 cy         1 1G0      -0.084000
      5 C7           2.6770    -0.9700    -0.3880 cy         1 1G0      -0.099400
      6 C8           3.8410    -1.7760     1.7590 cc         1 1G0       0.360800
      7 N9           3.6860    -1.7660     3.1160 nd         1 1G0      -0.536300
      8 C10          4.0990    -3.0040     3.5880 cd         1 1G0       0.100400
      9 C11          4.5140    -3.8170     2.4940 cc         1 1G0      -0.241600
     10 C12          4.9980    -5.1850     2.3160 cc         1 1G0       0.714200
     11 N13          5.2090    -5.9500     3.4510 nv         1 1G0      -0.942500
     12 N14          5.2830    -5.6730     1.0890 nd         1 1G0      -0.757000
     13 C15          5.1220    -4.8310     0.0180 cd         1 1G0       0.409200
     14 C16          4.6660    -3.5290     0.0900 cc         1 1G0      -0.253600
     15 N17          4.3510    -3.0120     1.3370 na         1 1G0      -0.021200
     16 C18          4.0820    -3.3520     5.0000 ca         1 1G0      -0.050800
     17 C19          2.8840    -3.2640     5.7240 ca         1 1G0      -0.086500
     18 C20          2.8510    -3.5790     7.0780 ca         1 1G0      -0.170500
     19 C21          4.0400    -3.9690     7.7170 ca         1 1G0       0.116100
     20 O22          3.9310    -4.1790     9.0860 os         1 1G0      -0.248200
     21 C23          4.8730    -5.0210     9.6740 ca         1 1G0       0.099100
     22 C24          5.3560    -4.6200    10.9280 ca         1 1G0      -0.151500
     23 C25          6.2070    -5.4760    11.6240 ca         1 1G0      -0.111000
     24 C26          6.5780    -6.7040    11.0760 ca         1 1G0      -0.144000
     25 C27          6.0950    -7.0890     9.8250 ca         1 1G0      -0.111000
     26 C28          5.2370    -6.2520     9.1140 ca         1 1G0      -0.151500
     27 C29          5.2460    -4.0460     7.0110 ca         1 1G0      -0.170500
     28 C30          5.2610    -3.7330     5.6540 ca         1 1G0      -0.086500
     29 H1          -0.0520     0.2390     0.8430 ho         1 1G0       0.406000
     30 H2           1.6370     1.0160    -0.6520 h1         1 1G0       0.046700
     31 H3           2.0230     0.1360     2.2610 hc         1 1G0       0.069950
     32 H4           2.9650     1.4270     1.3890 hc         1 1G0       0.069950
     33 H5           4.5520    -0.1860     0.5390 hc         1 1G0       0.073700
     34 H6           3.1620    -0.7830    -1.3680 hc         1 1G0       0.069950
     35 H7           2.2170    -1.9810    -0.3690 hc         1 1G0       0.069950
     36 H8           4.7180    -5.6690     4.2680 hn         1 1G0       0.430800
     37 H9           5.3590    -6.9250     3.3310 hn         1 1G0       0.430800
     38 H10          5.3840    -5.2810    -0.9560 h4         1 1G0       0.035100
     39 H11          4.5240    -2.8670    -0.7750 h4         1 1G0       0.173000
     40 H12          1.9630    -2.9380     5.2160 ha         1 1G0       0.149500
     41 H13          1.9180    -3.5130     7.6560 ha         1 1G0       0.152000
     42 H14          5.0500    -3.6510    11.3470 ha         1 1G0       0.148000
     43 H15          6.5890    -5.1760    12.6110 ha         1 1G0       0.136000
     44 H16          7.2530    -7.3710    11.6320 ha         1 1G0       0.135000
     45 H17          6.3870    -8.0590     9.3970 ha         1 1G0       0.136000
     46 H18          4.8480    -6.5450     8.1290 ha         1 1G0       0.148000
     47 H19          6.1720    -4.3400     7.5270 ha         1 1G0       0.152000
     48 H20          6.2100    -3.7730     5.0970 ha         1 1G0       0.149500
@<TRIPOS>BOND
     1     1     2 1   
     2     1    29 1   
     3     2     3 1   
     4     2     5 1   
     5     2    30 1   
     6     3     4 1   
     7     3    31 1   
     8     3    32 1   
     9     4     5 1   
    10     4     6 1   
    11     4    33 1   
    12     5    34 1   
    13     5    35 1   
    14     6     7 2   
    15     6    15 1   
    16     7     8 1   
    17     8     9 2   
    18     8    16 1   
    19     9    10 1   
    20     9    15 1   
    21    10    11 1   
    22    10    12 2   
    23    11    36 1   
    24    11    37 1   
    25    12    13 1   
    26    13    14 2   
    27    13    38 1   
    28    14    15 1   
    29    14    39 1   
    30    16    17 ar  
    31    16    28 ar  
    32    17    18 ar  
    33    17    40 1   
    34    18    19 ar  
    35    18    41 1   
    36    19    20 1   
    37    19    27 ar  
    38    20    21 1   
    39    21    22 ar  
    40    21    26 ar  
    41    22    23 ar  
    42    22    42 1   
    43    23    24 ar  
    44    23    43 1   
    45    24    25 ar  
    46    24    44 1   
    47    25    26 ar  
    48    25    45 1   
    49    26    46 1   
    50    27    28 ar  
    51    27    47 1   
    52    28    48 1   
@<TRIPOS>SUBSTRUCTURE
     1 1G0         1 TEMP              0 ****  ****    0 ROOT
