@<TRIPOS>MOLECULE
molecule
   48    52     1     0     0
SMALL
bcc


@<TRIPOS>ATOM
      1 O1           0.0000     0.0000     0.0000 oh         1 1G0      -0.584800
      2 C2           1.4280     0.0000     0.0000 cy         1 1G0       0.115100
      3 C4           2.0440     0.0000     1.4100 cy         1 1G0      -0.090400
      4 C5           3.0910    -0.9880     0.8670 cy         1 1G0      -0.097000
      5 C7           2.0450    -1.3970    -0.1830 cy         1 1G0      -0.090400
      6 C8           3.4390    -2.0900     1.8340 cc         1 1G0       0.365800
      7 N9           2.5930    -2.9640     2.3160 nd         1 1G0      -0.558300
      8 C10          3.2300    -3.8040     3.1470 cd         1 1G0       0.108400
      9 C11          4.5640    -3.4150     3.1760 cc         1 1G0      -0.262600
     10 C12          5.7170    -3.8800     3.8410 cc         1 1G0       0.756200
     11 N13          5.6420    -4.9700     4.6900 nv         1 1G0      -1.005500
     12 N14          6.8700    -3.2670     3.6450 nd         1 1G0      -0.787000
     13 C15          6.9650    -2.2100     2.8260 cd         1 1G0       0.441200
     14 C16          5.8960    -1.7260     2.1700 cc         1 1G0      -0.277600
     15 N17          4.6670    -2.3270     2.3280 na         1 1G0       0.013800
     16 C18          2.6260    -4.9310     3.8920 ca         1 1G0      -0.014800
     17 C19          1.7340    -5.7930     3.2550 ca         1 1G0      -0.109000
     18 C20          1.1730    -6.8430     3.9520 ca         1 1G0      -0.143500
     19 C21          1.4970    -7.0410     5.2880 ca         1 1G0       0.103100
     20 O22          0.9420    -8.0760     5.9730 os         1 1G0      -0.252200
     21 C23         -0.0890    -7.8050     6.8130 ca         1 1G0       0.134100
     22 C24         -0.5380    -6.5000     6.9670 ca         1 1G0      -0.181000
     23 C25         -1.5870    -6.2280     7.8210 ca         1 1G0      -0.093500
     24 C26         -2.1910    -7.2530     8.5250 ca         1 1G0      -0.163000
     25 C27         -1.7470    -8.5530     8.3750 ca         1 1G0      -0.093500
     26 C28         -0.7020    -8.8330     7.5170 ca         1 1G0      -0.181000
     27 C29          2.3850    -6.1850     5.9260 ca         1 1G0      -0.143500
     28 C30          2.9540    -5.1380     5.2330 ca         1 1G0      -0.109000
     29 H1          -0.3140     0.6690    -0.5860 ho         1 1G0       0.399000
     30 H2           1.8740     0.7420    -0.6510 h1         1 1G0       0.048700
     31 H3           2.4680     0.9580     1.6870 hc         1 1G0       0.073200
     32 H4           1.3930    -0.4400     2.1560 hc         1 1G0       0.073200
     33 H5           3.9490    -0.4900     0.4310 hc         1 1G0       0.069700
     34 H6           2.4700    -1.5470    -1.1680 hc         1 1G0       0.073200
     35 H7           1.3950    -2.1950     0.1560 hc         1 1G0       0.073200
     36 H8           6.3230    -5.0870     5.4140 hn         1 1G0       0.451800
     37 H9           4.9580    -5.6820     4.5280 hn         1 1G0       0.451800
     38 H10          7.9280    -1.7320     2.6910 h4         1 1G0       0.034100
     39 H11          6.0020    -0.8700     1.5150 h4         1 1G0       0.164000
     40 H12          1.4810    -5.6380     2.2130 ha         1 1G0       0.152500
     41 H13          0.4800    -7.5120     3.4570 ha         1 1G0       0.148000
     42 H14         -0.0650    -5.6970     6.4150 ha         1 1G0       0.144000
     43 H15         -1.9370    -5.2100     7.9400 ha         1 1G0       0.133000
     44 H16         -3.0130    -7.0360     9.1970 ha         1 1G0       0.130000
     45 H17         -2.2240    -9.3550     8.9260 ha         1 1G0       0.133000
     46 H18         -0.3550    -9.8520     7.4000 ha         1 1G0       0.144000
     47 H19          2.6370    -6.3450     6.9680 ha         1 1G0       0.148000
     48 H20          3.6460    -4.4700     5.7310 ha         1 1G0       0.152500
@<TRIPOS>BOND
     1     1     2 1
     2     2     5 1
     3     2     3 1
     4     5     4 1
     5     3     4 1
     6     4     6 1
     7    14    13 2
     8    14    15 1
     9     6    15 1
    10     6     7 2
    11    13    12 1
    12    15     9 1
    13     7     8 1
    14    12    10 2
    15     9     8 2
    16     9    10 1
    17     8    16 1
    18    10    11 1
    19    17    16 ar
    20    17    18 ar
    21    16    28 ar
    22    18    19 ar
    23    28    27 ar
    24    19    27 ar
    25    19    20 1
    26    20    21 1
    27    26    21 ar
    28    26    25 ar
    29    21    22 ar
    30    25    24 ar
    31    22    23 ar
    32    24    23 ar
    33     1    29 1
    34     2    30 1
    35     3    31 1
    36     3    32 1
    37     4    33 1
    38     5    34 1
    39     5    35 1
    40    11    36 1
    41    11    37 1
    42    13    38 1
    43    14    39 1
    44    17    40 1
    45    18    41 1
    46    22    42 1
    47    23    43 1
    48    24    44 1
    49    25    45 1
    50    26    46 1
    51    27    47 1
    52    28    48 1
@<TRIPOS>SUBSTRUCTURE
     1 1G0         1 TEMP              0 ****  ****    0 ROOT
