@<TRIPOS>MOLECULE
1G4
   43    45     1     0     0
SMALL
bcc


@<TRIPOS>ATOM
      1 OB           0.0000     0.0000     0.0000 o          1 1G4      -0.694500
      2 CB           1.2120     0.0000     0.0000 c          1 1G4       0.616500
      3 CAB          1.9320     0.0000     1.3190 c3         1 1G4       0.060500
      4 CBB          1.2440     0.9790     2.2730 c3         1 1G4       0.043900
      5 CGB          1.8870     0.8900     3.6320 ca         1 1G4      -0.119300
      6 CD4          2.9620     1.7030     3.9420 ca         1 1G4      -0.079000
      7 CE4          3.5540     1.6240     5.1880 ca         1 1G4      -0.138500
      8 CZB          3.0690     0.7280     6.1290 ca         1 1G4       0.122100
      9 OHB          3.6520     0.6450     7.3540 oh         1 1G4      -0.501100
     10 CE3          1.9900    -0.0860     5.8160 ca         1 1G4      -0.138500
     11 CD3          1.3990     0.0010     4.5710 ca         1 1G4      -0.079000
     12 NB           3.3300     0.4070     1.1280 n7         1 1G4      -0.589200
     13 CA           3.9450    -0.3790     0.0450 c3         1 1G4       0.133800
     14 CAA          3.3090     0.0340    -1.2830 c3         1 1G4       0.022700
     15 NA           1.8530    -0.0070    -1.1740 ns         1 1G4      -0.173900
     16 CBA          3.7560     1.4520    -1.6420 c3         1 1G4       0.014900
     17 CGA          3.2320     1.8150    -3.0070 ca         1 1G4      -0.120300
     18 CD2          1.9950     2.4220    -3.1320 ca         1 1G4      -0.079500
     19 CE2          1.5120     2.7550    -4.3830 ca         1 1G4      -0.135000
     20 CZA          2.2670     2.4810    -5.5130 ca         1 1G4       0.124100
     21 OHA          1.7940     2.8080    -6.7440 oh         1 1G4      -0.500100
     22 CE1          3.5070     1.8720    -5.3850 ca         1 1G4      -0.135000
     23 CD1          3.9890     1.5450    -4.1320 ca         1 1G4      -0.079500
     24 H1           1.9050    -0.9980     1.7410 h1         1 1G4       0.030700
     25 H2           0.1930     0.7260     2.3540 hc         1 1G4       0.040200
     26 H3           1.3450     1.9870     1.8910 hc         1 1G4       0.040200
     27 H4           3.3400     2.4030     3.2070 ha         1 1G4       0.112500
     28 H5           4.3950     2.2620     5.4300 ha         1 1G4       0.114000
     29 H6           3.2300     1.2470     7.9440 ho         1 1G4       0.403000
     30 H7           1.6070    -0.7850     6.5500 ha         1 1G4       0.114000
     31 H8           0.5560    -0.6350     4.3270 ha         1 1G4       0.112500
     32 H9           3.8400     0.2610     1.9770 hn         1 1G4       0.273800
     33 H11          5.0100    -0.1820     0.0130 h1         1 1G4       0.017700
     34 H12          3.7700    -1.4340     0.2180 h1         1 1G4       0.017700
     35 H13          3.6260    -0.6540    -2.0580 h1         1 1G4       0.032700
     36 H14          1.3110    -0.0410    -2.0150 hn         1 1G4       0.189500
     37 H15          3.3680     2.1500    -0.9100 hc         1 1G4       0.035700
     38 H16          4.8380     1.4990    -1.6470 hc         1 1G4       0.035700
     39 H17          1.4050     2.6370    -2.2490 ha         1 1G4       0.110000
     40 H18          0.5430     3.2310    -4.4810 ha         1 1G4       0.115500
     41 H19          1.3000     2.0850    -7.0930 ho         1 1G4       0.403000
     42 H20          4.1000     1.6590    -6.2660 ha         1 1G4       0.115500
     43 H21          4.9570     1.0700    -4.0310 ha         1 1G4       0.110000
@<TRIPOS>BOND
     1     1     2 2   
     2     2     3 1   
     3     2    15 1   
     4     3     4 1   
     5     3    12 1   
     6     3    24 1   
     7     4     5 1   
     8     4    25 1   
     9     4    26 1   
    10     5     6 ar  
    11     5    11 ar  
    12     6     7 ar  
    13     6    27 1   
    14     7     8 ar  
    15     7    28 1   
    16     8     9 1   
    17     8    10 ar  
    18     9    29 1   
    19    10    11 ar  
    20    10    30 1   
    21    11    31 1   
    22    12    13 1   
    23    12    32 1   
    24    13    14 1   
    25    13    33 1   
    26    13    34 1   
    27    14    15 1   
    28    14    16 1   
    29    14    35 1   
    30    15    36 1   
    31    16    17 1   
    32    16    37 1   
    33    16    38 1   
    34    17    18 ar  
    35    17    23 ar  
    36    18    19 ar  
    37    18    39 1   
    38    19    20 ar  
    39    19    40 1   
    40    20    21 1   
    41    20    22 ar  
    42    21    41 1   
    43    22    23 ar  
    44    22    42 1   
    45    23    43 1   
@<TRIPOS>SUBSTRUCTURE
     1 1G4         1 TEMP              0 ****  ****    0 ROOT
