@<TRIPOS>MOLECULE
1G4
   43    45     1     0     0
SMALL
bcc


@<TRIPOS>ATOM
      1 OB           0.3740    -0.2080     0.2710 o          1 1G4      -0.647500
      2 CB           1.5890     0.0670     0.2070 c          1 1G4       0.664500
      3 CAB          2.4560     0.0990     1.4830 c3         1 1G4       0.111500
      4 CBB          1.9290     1.2550     2.3580 c3         1 1G4      -0.019100
      5 CGB          2.3520     1.1040     3.7760 ca         1 1G4      -0.116300
      6 CD4          3.6080     1.5530     4.1950 ca         1 1G4      -0.081500
      7 CE4          4.0000     1.4270     5.5250 ca         1 1G4      -0.188000
      8 CZB          3.1190     0.8430     6.4460 ca         1 1G4       0.123100
      9 OHB          3.4330     0.6850     7.7770 oh         1 1G4      -0.499100
     10 CE3          1.8540     0.3870     6.0420 ca         1 1G4      -0.188000
     11 CD3          1.4830     0.5220     4.7090 ca         1 1G4      -0.081500
     12 NB           3.8900     0.1700     1.2520 n7         1 1G4      -0.799200
     13 CA           4.2470     1.0230     0.1430 c3         1 1G4       0.144800
     14 CAA          3.5490     0.6740    -1.2000 c3         1 1G4       0.075700
     15 NA           2.1590     0.3310    -1.0180 ns         1 1G4      -0.574900
     16 CBA          3.7490     1.8350    -2.1920 c3         1 1G4      -0.044100
     17 CGA          5.1710     1.9450    -2.6150 ca         1 1G4      -0.124300
     18 CD2          5.7250     0.9860    -3.4750 ca         1 1G4      -0.090000
     19 CE2          7.0450     1.0850    -3.8990 ca         1 1G4      -0.182000
     20 CZA          7.8240     2.1680    -3.4570 ca         1 1G4       0.127100
     21 OHA          9.1220     2.2140    -3.9090 oh         1 1G4      -0.495100
     22 CE1          7.2830     3.1380    -2.6010 ca         1 1G4      -0.182000
     23 CD1          5.9590     3.0180    -2.1870 ca         1 1G4      -0.090000
     24 H1           2.2340    -0.8670     2.0300 h1         1 1G4       0.091700
     25 H2           0.8070     1.2450     2.2900 hc         1 1G4       0.062700
     26 H3           2.2880     2.2380     1.9550 hc         1 1G4       0.062700
     27 H4           4.2980     2.0010     3.4630 ha         1 1G4       0.139500
     28 H5           4.9890     1.7790     5.8490 ha         1 1G4       0.141000
     29 H6           4.3250     1.0350     7.9150 ho         1 1G4       0.418000
     30 H7           1.1790    -0.0680     6.7800 ha         1 1G4       0.141000
     31 H8           0.4920     0.1670     4.3840 ha         1 1G4       0.139500
     32 H9           4.2580    -0.7540     1.1150 hn         1 1G4       0.366800
     33 H11          5.3580     0.9650    -0.0210 h1         1 1G4       0.067200
     34 H12          3.9900     2.0830     0.4250 h1         1 1G4       0.067200
     35 H13          4.0670    -0.2370    -1.6380 h1         1 1G4       0.045700
     36 H14          1.5780     0.3290    -1.8240 hn         1 1G4       0.319500
     37 H15          3.4050     2.7940    -1.7210 hc         1 1G4       0.056700
     38 H16          3.1140     1.6650    -3.1040 hc         1 1G4       0.056700
     39 H17          5.1060     0.1440    -3.8210 ha         1 1G4       0.135500
     40 H18          7.4870     0.3370    -4.5720 ha         1 1G4       0.144500
     41 H19          9.5390     3.0060    -3.5400 ho         1 1G4       0.421000
     42 H20          7.8970     3.9840    -2.2620 ha         1 1G4       0.144500
     43 H21          5.5310     3.7790    -1.5160 ha         1 1G4       0.135500
@<TRIPOS>BOND
     1     1     2 2   
     2     2     3 1   
     3     2    15 1   
     4     3     4 1   
     5     3    12 1   
     6     3    24 1   
     7     4     5 1   
     8     4    25 1   
     9     4    26 1   
    10     5     6 ar  
    11     5    11 ar  
    12     6     7 ar  
    13     6    27 1   
    14     7     8 ar  
    15     7    28 1   
    16     8     9 1   
    17     8    10 ar  
    18     9    29 1   
    19    10    11 ar  
    20    10    30 1   
    21    11    31 1   
    22    12    13 1   
    23    12    32 1   
    24    13    14 1   
    25    13    33 1   
    26    13    34 1   
    27    14    15 1   
    28    14    16 1   
    29    14    35 1   
    30    15    36 1   
    31    16    17 1   
    32    16    37 1   
    33    16    38 1   
    34    17    18 ar  
    35    17    23 ar  
    36    18    19 ar  
    37    18    39 1   
    38    19    20 ar  
    39    19    40 1   
    40    20    21 1   
    41    20    22 ar  
    42    21    41 1   
    43    22    23 ar  
    44    22    42 1   
    45    23    43 1   
@<TRIPOS>SUBSTRUCTURE
     1 1G4         1 TEMP              0 ****  ****    0 ROOT
