@<TRIPOS>MOLECULE
1G7
   43    45     1     0     0
SMALL
bcc


@<TRIPOS>ATOM
      1 OB           0.0000     0.0000     0.0000 o          1 1G7      -0.677500
      2 CB           1.2130     0.0000     0.0000 c          1 1G7       0.602500
      3 CAB          1.9320     0.0000     1.3160 c3         1 1G7      -0.047300
      4 CBB          1.9360     1.4210     1.8840 c3         1 1G7       0.019900
      5 CGB          2.5060     1.4030     3.2780 ca         1 1G7      -0.109300
      6 CD4          3.8660     1.5700     3.4700 ca         1 1G7      -0.129000
      7 CE4          4.3920     1.5540     4.7510 ca         1 1G7       0.106100
      8 OH4          5.7280     1.7180     4.9410 oh         1 1G7      -0.487100
      9 CZB          3.5500     1.3690     5.8430 ca         1 1G7       0.102100
     10 OHB          4.0620     1.3520     7.1030 oh         1 1G7      -0.487100
     11 CE3          2.1890     1.2010     5.6450 ca         1 1G7      -0.136000
     12 CD3          1.6690     1.2240     4.3640 ca         1 1G7      -0.085000
     13 NB           3.3060    -0.4590     1.1680 ns         1 1G7      -0.177900
     14 CA           3.9460    -0.4640    -0.0060 c          1 1G7       0.602500
     15 OA           5.0910    -0.8620    -0.0410 o          1 1G7      -0.672500
     16 NA           1.8530    -0.0070    -1.1730 ns         1 1G7      -0.174900
     17 CAA          3.3060    -0.0010    -1.2800 c3         1 1G7      -0.048300
     18 CBA          3.7850     1.4180    -1.5940 c3         1 1G7       0.021900
     19 CGA          3.2440     1.8450    -2.9340 ca         1 1G7      -0.128300
     20 CD1          2.0220     2.4880    -3.0120 ca         1 1G7      -0.076000
     21 CE1          1.5250     2.8810    -4.2390 ca         1 1G7      -0.134500
     22 CZA          2.2510     2.6290    -5.3950 ca         1 1G7       0.129100
     23 OHA          1.7610     3.0100    -6.6030 oh         1 1G7      -0.499100
     24 CE2          3.4770     1.9840    -5.3130 ca         1 1G7      -0.134500
     25 CD2          3.9730     1.5980    -4.0830 ca         1 1G7      -0.076000
     26 H1           1.4120    -0.6590     2.0010 h1         1 1G7       0.064700
     27 H2           0.9220     1.8010     1.9140 hc         1 1G7       0.036200
     28 H3           2.5420     2.0610     1.2540 hc         1 1G7       0.036200
     29 H4           4.5160     1.7380     2.6200 ha         1 1G7       0.121000
     30 H5           5.9370     2.6380     4.9290 ho         1 1G7       0.407000
     31 H6           3.9810     0.4850     7.4640 ho         1 1G7       0.407000
     32 H7           1.5310     1.0590     6.4930 ha         1 1G7       0.116000
     33 H8           0.6050     1.0930     4.2100 ha         1 1G7       0.113000
     34 H9           3.7920    -0.7840     1.9800 hn         1 1G7       0.200500
     35 H10          1.3110    -0.0170    -2.0140 hn         1 1G7       0.197500
     36 H11          3.6010    -0.6650    -2.0830 h1         1 1G7       0.064700
     37 H12          4.8680     1.4360    -1.6200 hc         1 1G7       0.035700
     38 H13          3.4310     2.0970    -0.8280 hc         1 1G7       0.035700
     39 H14          1.4550     2.6840    -2.1100 ha         1 1G7       0.111000
     40 H15          0.5670     3.3850    -4.2990 ha         1 1G7       0.117000
     41 H16          1.2860     2.2940    -6.9900 ho         1 1G7       0.404000
     42 H17          4.0480     1.7880    -6.2130 ha         1 1G7       0.117000
     43 H18          4.9300     1.0950    -4.0180 ha         1 1G7       0.111000
@<TRIPOS>BOND
     1     1     2 2   
     2     2     3 1   
     3     2    16 1   
     4     3     4 1   
     5     3    13 1   
     6     3    26 1   
     7     4     5 1   
     8     4    27 1   
     9     4    28 1   
    10     5     6 ar  
    11     5    12 ar  
    12     6     7 ar  
    13     6    29 1   
    14     7     8 1   
    15     7     9 ar  
    16     8    30 1   
    17     9    10 1   
    18     9    11 ar  
    19    10    31 1   
    20    11    12 ar  
    21    11    32 1   
    22    12    33 1   
    23    13    14 1   
    24    13    34 1   
    25    14    15 2   
    26    14    17 1   
    27    16    17 1   
    28    16    35 1   
    29    17    18 1   
    30    17    36 1   
    31    18    19 1   
    32    18    37 1   
    33    18    38 1   
    34    19    20 ar  
    35    19    25 ar  
    36    20    21 ar  
    37    20    39 1   
    38    21    22 ar  
    39    21    40 1   
    40    22    23 1   
    41    22    24 ar  
    42    23    41 1   
    43    24    25 ar  
    44    24    42 1   
    45    25    43 1   
@<TRIPOS>SUBSTRUCTURE
     1 1G7         1 TEMP              0 ****  ****    0 ROOT
