@<TRIPOS>MOLECULE
1G7
   43    45     1     0     0
SMALL
bcc


@<TRIPOS>ATOM
      1 OB          -0.0280     0.4330     0.3330 o          1 1G7      -0.637500
      2 CB           1.2050     0.2590     0.2870 c          1 1G7       0.693500
      3 CAB          1.9960     0.0400     1.5860 c3         1 1G7       0.045700
      4 CBB          1.6450     1.2000     2.5450 c3         1 1G7      -0.056100
      5 CGB          2.1460     0.9330     3.9190 ca         1 1G7      -0.090300
      6 CD4          3.4020     1.4100     4.3090 ca         1 1G7      -0.140000
      7 CE4          3.8650     1.1670     5.6080 ca         1 1G7       0.115100
      8 OH4          5.1040     1.6590     5.9380 oh         1 1G7      -0.493100
      9 CZB          3.0620     0.4400     6.5140 ca         1 1G7       0.043100
     10 OHB          3.5920     0.2420     7.7730 oh         1 1G7      -0.515100
     11 CE3          1.8090    -0.0330     6.1190 ca         1 1G7      -0.166000
     12 CD3          1.3570     0.2160     4.8250 ca         1 1G7      -0.122000
     13 NB           3.4120    -0.1490     1.4140 ns         1 1G7      -0.555900
     14 CA           4.0710     0.0090     0.2170 c          1 1G7       0.692500
     15 OA           5.3170    -0.0060     0.1850 o          1 1G7      -0.641500
     16 NA           1.8450     0.2000    -0.9280 ns         1 1G7      -0.556900
     17 CAA          3.2720     0.1100    -1.0910 c3         1 1G7       0.045700
     18 CBA          3.8700     1.2370    -1.9580 c3         1 1G7      -0.046100
     19 CGA          3.6230     2.6040    -1.4320 ca         1 1G7      -0.134300
     20 CD1          2.4950     3.3310    -1.8370 ca         1 1G7      -0.086500
     21 CE1          2.2730     4.6210    -1.3700 ca         1 1G7      -0.185000
     22 CZA          3.2010     5.1950    -0.4850 ca         1 1G7       0.128100
     23 OHA          2.9310     6.4750    -0.0580 oh         1 1G7      -0.496100
     24 CE2          4.3350     4.4820    -0.0720 ca         1 1G7      -0.185000
     25 CD2          4.5380     3.1910    -0.5500 ca         1 1G7      -0.086500
     26 H1           1.5800    -0.9160     2.0390 h1         1 1G7       0.086700
     27 H2           2.0700     2.1620     2.1550 hc         1 1G7       0.079700
     28 H3           0.5250     1.3010     2.5530 hc         1 1G7       0.079700
     29 H4           4.0330     1.9860     3.6160 ha         1 1G7       0.156000
     30 H5           5.2890     1.4140     6.8580 ho         1 1G7       0.439000
     31 H6           2.9420    -0.2510     8.2930 ho         1 1G7       0.431000
     32 H7           1.1840    -0.5960     6.8270 ha         1 1G7       0.139000
     33 H8           0.3670    -0.1530     4.5150 ha         1 1G7       0.142000
     34 H9           3.9550    -0.1460     2.2520 hn         1 1G7       0.334500
     35 H10          1.3230     0.4440    -1.7410 hn         1 1G7       0.326500
     36 H11          3.4850    -0.8660    -1.6370 h1         1 1G7       0.080700
     37 H12          4.9770     1.0460    -2.0210 hc         1 1G7       0.071700
     38 H13          3.4480     1.1480    -2.9950 hc         1 1G7       0.071700
     39 H14          1.7740     2.8770    -2.5340 ha         1 1G7       0.141500
     40 H15          1.3910     5.1970    -1.6810 ha         1 1G7       0.145500
     41 H16          3.6470     6.7490     0.5340 ho         1 1G7       0.421000
     42 H17          5.0580     4.9380     0.6190 ha         1 1G7       0.145500
     43 H18          5.4250     2.6180    -0.2300 ha         1 1G7       0.141500
@<TRIPOS>BOND
     1     1     2 2   
     2     2     3 1   
     3     2    16 1   
     4     3     4 1   
     5     3    13 1   
     6     3    26 1   
     7     4     5 1   
     8     4    27 1   
     9     4    28 1   
    10     5     6 ar  
    11     5    12 ar  
    12     6     7 ar  
    13     6    29 1   
    14     7     8 1   
    15     7     9 ar  
    16     8    30 1   
    17     9    10 1   
    18     9    11 ar  
    19    10    31 1   
    20    11    12 ar  
    21    11    32 1   
    22    12    33 1   
    23    13    14 1   
    24    13    34 1   
    25    14    15 2   
    26    14    17 1   
    27    16    17 1   
    28    16    35 1   
    29    17    18 1   
    30    17    36 1   
    31    18    19 1   
    32    18    37 1   
    33    18    38 1   
    34    19    20 ar  
    35    19    25 ar  
    36    20    21 ar  
    37    20    39 1   
    38    21    22 ar  
    39    21    40 1   
    40    22    23 1   
    41    22    24 ar  
    42    23    41 1   
    43    24    25 ar  
    44    24    42 1   
    45    25    43 1   
@<TRIPOS>SUBSTRUCTURE
     1 1G7         1 TEMP              0 ****  ****    0 ROOT
