@<TRIPOS>MOLECULE
molecule
   31    32     1     0     0
SMALL
bcc


@<TRIPOS>ATOM
      1 OB           0.0000     0.0000     0.0000 o          1 1G9      -0.637500
      2 CB           1.2130     0.0000     0.0000 c          1 1G9       0.695500
      3 NA           1.8540     0.0000     1.1730 ns         1 1G9      -0.573900
      4 CAA          3.3060    -0.0010     1.2800 c3         1 1G9       0.039700
      5 CBA          3.7850    -1.4210     1.5910 c3         1 1G9      -0.109100
      6 CAB          1.9320    -0.0060    -1.3150 c3         1 1G9       0.047700
      7 NB           3.3080     0.4520    -1.1690 ns         1 1G9      -0.571900
      8 CA           3.9470     0.4630     0.0060 c          1 1G9       0.693500
      9 OA           5.0930     0.8580     0.0420 o          1 1G9      -0.637500
     10 CBB          1.9350    -1.4290    -1.8780 c3         1 1G9      -0.046100
     11 CGB          2.5070    -1.4170    -3.2720 ca         1 1G9      -0.106300
     12 CD4          3.8650    -1.5850    -3.4630 ca         1 1G9      -0.111000
     13 CE4          4.3920    -1.5740    -4.7400 ca         1 1G9      -0.150000
     14 CZB          3.5550    -1.3930    -5.8330 ca         1 1G9       0.108100
     15 OHB          4.0710    -1.3770    -7.0890 oh         1 1G9      -0.521100
     16 CE3          2.1910    -1.2240    -5.6390 ca         1 1G9      -0.150000
     17 CD3          1.6700    -1.2420    -4.3600 ca         1 1G9      -0.111000
     18 H1           1.3120     0.0010     2.0150 hn         1 1G9       0.335500
     19 H2           3.6010     0.6610     2.0840 h1         1 1G9       0.091700
     20 H3           4.0810    -1.4830     2.6310 hc         1 1G9       0.052700
     21 H4           4.6310    -1.6640     0.9600 hc         1 1G9       0.052700
     22 H5           2.9810    -2.1230     1.4030 hc         1 1G9       0.052700
     23 H6           1.4140     0.6510    -2.0030 h1         1 1G9       0.096700
     24 H7           3.7950     0.7730    -1.9820 hn         1 1G9       0.340500
     25 H8           0.9210    -1.8080    -1.9070 hc         1 1G9       0.067200
     26 H9           2.5410    -2.0660    -1.2450 hc         1 1G9       0.067200
     27 H10          4.5180    -1.7260    -2.6100 ha         1 1G9       0.139000
     28 H11          5.4560    -1.7060    -4.8890 ha         1 1G9       0.144000
     29 H12          4.0970    -2.2560    -7.4300 ho         1 1G9       0.421000
     30 H13          1.5350    -1.0850    -6.4900 ha         1 1G9       0.144000
     31 H14          0.6060    -1.1100    -4.2070 ha         1 1G9       0.139000
@<TRIPOS>BOND
     1    15    14 1   
     2    14    16 ar  
     3    14    13 ar  
     4    16    17 ar  
     5    13    12 ar  
     6    17    11 ar  
     7    12    11 ar  
     8    11    10 1   
     9    10     6 1   
    10     5     4 1   
    11     6     7 1   
    12     6     2 1   
    13     7     8 1   
    14     2     1 2   
    15     2     3 1   
    16     8     4 1   
    17     8     9 2   
    18     4     3 1   
    19     3    18 1   
    20     4    19 1   
    21     5    20 1   
    22     5    21 1   
    23     5    22 1   
    24     6    23 1   
    25     7    24 1   
    26    10    25 1   
    27    10    26 1   
    28    12    27 1   
    29    13    28 1   
    30    15    29 1   
    31    16    30 1   
    32    17    31 1   
@<TRIPOS>SUBSTRUCTURE
     1 1G9         1 TEMP              0 ****  ****    0 ROOT
