@<TRIPOS>MOLECULE
1G9
   31    32     1     0     0
SMALL
bcc


@<TRIPOS>ATOM
      1 OB           0.0000     0.0000     0.0000 o          1 1G9      -0.675500
      2 CB           1.2130     0.0000     0.0000 c          1 1G9       0.605500
      3 NA           1.8540     0.0000     1.1730 ns         1 1G9      -0.174900
      4 CAA          3.3060    -0.0010     1.2800 c3         1 1G9      -0.051300
      5 CBA          3.7850    -1.4210     1.5910 c3         1 1G9      -0.012100
      6 CAB          1.9320    -0.0060    -1.3150 c3         1 1G9      -0.046300
      7 NB           3.3080     0.4520    -1.1690 ns         1 1G9      -0.177900
      8 CA           3.9470     0.4630     0.0060 c          1 1G9       0.604500
      9 OA           5.0930     0.8580     0.0420 o          1 1G9      -0.674500
     10 CBB          1.9350    -1.4290    -1.8780 c3         1 1G9       0.021900
     11 CGB          2.5070    -1.4170    -3.2720 ca         1 1G9      -0.127300
     12 CD4          3.8650    -1.5850    -3.4630 ca         1 1G9      -0.076500
     13 CE4          4.3920    -1.5740    -4.7400 ca         1 1G9      -0.134000
     14 CZB          3.5550    -1.3930    -5.8330 ca         1 1G9       0.128100
     15 OHB          4.0710    -1.3770    -7.0890 oh         1 1G9      -0.499100
     16 CE3          2.1910    -1.2240    -5.6390 ca         1 1G9      -0.134000
     17 CD3          1.6700    -1.2420    -4.3600 ca         1 1G9      -0.076500
     18 H1           1.3120     0.0010     2.0150 hn         1 1G9       0.191500
     19 H2           3.6010     0.6610     2.0840 h1         1 1G9       0.060700
     20 H3           4.0810    -1.4830     2.6310 hc         1 1G9       0.018367
     21 H4           4.6310    -1.6640     0.9600 hc         1 1G9       0.018367
     22 H5           2.9810    -2.1230     1.4030 hc         1 1G9       0.018367
     23 H6           1.4140     0.6510    -2.0030 h1         1 1G9       0.065700
     24 H7           3.7950     0.7730    -1.9820 hn         1 1G9       0.199500
     25 H8           0.9210    -1.8080    -1.9070 hc         1 1G9       0.035200
     26 H9           2.5410    -2.0660    -1.2450 hc         1 1G9       0.035200
     27 H10          4.5180    -1.7260    -2.6100 ha         1 1G9       0.111000
     28 H11          5.4560    -1.7060    -4.8890 ha         1 1G9       0.117000
     29 H12          4.0970    -2.2560    -7.4300 ho         1 1G9       0.405000
     30 H13          1.5350    -1.0850    -6.4900 ha         1 1G9       0.117000
     31 H14          0.6060    -1.1100    -4.2070 ha         1 1G9       0.111000
@<TRIPOS>BOND
     1     1     2 2   
     2     2     3 1   
     3     2     6 1   
     4     3     4 1   
     5     3    18 1   
     6     4     5 1   
     7     4     8 1   
     8     4    19 1   
     9     5    20 1   
    10     5    21 1   
    11     5    22 1   
    12     6     7 1   
    13     6    10 1   
    14     6    23 1   
    15     7     8 1   
    16     7    24 1   
    17     8     9 2   
    18    10    11 1   
    19    10    25 1   
    20    10    26 1   
    21    11    12 ar  
    22    11    17 ar  
    23    12    13 ar  
    24    12    27 1   
    25    13    14 ar  
    26    13    28 1   
    27    14    15 1   
    28    14    16 ar  
    29    15    29 1   
    30    16    17 ar  
    31    16    30 1   
    32    17    31 1   
@<TRIPOS>SUBSTRUCTURE
     1 1G9         1 TEMP              0 ****  ****    0 ROOT
