@<TRIPOS>MOLECULE
1G9
   31    32     1     0     0
SMALL
bcc


@<TRIPOS>ATOM
      1 OB          -0.0940    -0.2020    -0.1230 o          1 1G9      -0.634500
      2 CB           1.1410    -0.0490    -0.0770 c          1 1G9       0.691500
      3 NA           1.7920     0.0270     1.1330 ns         1 1G9      -0.562900
      4 CAA          3.2270     0.0360     1.2560 c3         1 1G9       0.039700
      5 CBA          3.8290    -1.3190     1.6380 c3         1 1G9      -0.120100
      6 CAB          1.9480     0.0980    -1.3780 c3         1 1G9       0.040700
      7 NB           3.2740     0.6260    -1.1940 ns         1 1G9      -0.555900
      8 CA           3.9620     0.5260    -0.0050 c          1 1G9       0.688500
      9 OA           5.1600     0.8580     0.0640 o          1 1G9      -0.632500
     10 CBB          1.9070    -1.2660    -2.1020 c3         1 1G9      -0.053100
     11 CGB          2.4240    -1.1560    -3.4900 ca         1 1G9      -0.133300
     12 CD4          3.7880    -1.3410    -3.7570 ca         1 1G9      -0.089500
     13 CE4          4.2800    -1.2480    -5.0540 ca         1 1G9      -0.182500
     14 CZB          3.3880    -0.9640    -6.1030 ca         1 1G9       0.129100
     15 OHB          3.9310    -0.8830    -7.3630 oh         1 1G9      -0.494100
     16 CE3          2.0220    -0.7770    -5.8520 ca         1 1G9      -0.182500
     17 CD3          1.5500    -0.8750    -4.5460 ca         1 1G9      -0.089500
     18 H1           1.2700    -0.1310     1.9650 hn         1 1G9       0.328500
     19 H2           3.4880     0.7790     2.0740 h1         1 1G9       0.089700
     20 H3           3.4210    -1.6630     2.6180 hc         1 1G9       0.055033
     21 H4           4.9380    -1.2060     1.7260 hc         1 1G9       0.055033
     22 H5           3.6060    -2.0930     0.8650 hc         1 1G9       0.055033
     23 H6           1.3770     0.8430    -2.0170 h1         1 1G9       0.094700
     24 H7           3.7860     0.8330    -2.0240 hn         1 1G9       0.333500
     25 H8           0.8360    -1.6080    -2.1120 hc         1 1G9       0.069200
     26 H9           2.5020    -2.0220    -1.5250 hc         1 1G9       0.069200
     27 H10          4.4800    -1.5700    -2.9320 ha         1 1G9       0.139000
     28 H11          5.3470    -1.3920    -5.2720 ha         1 1G9       0.146000
     29 H12          3.2150    -0.6900    -7.9860 ho         1 1G9       0.421000
     30 H13          1.3300    -0.5580    -6.6780 ha         1 1G9       0.146000
     31 H14          0.4760    -0.7330    -4.3430 ha         1 1G9       0.139000
@<TRIPOS>BOND
     1     1     2 2   
     2     2     3 1   
     3     2     6 1   
     4     3     4 1   
     5     3    18 1   
     6     4     5 1   
     7     4     8 1   
     8     4    19 1   
     9     5    20 1   
    10     5    21 1   
    11     5    22 1   
    12     6     7 1   
    13     6    10 1   
    14     6    23 1   
    15     7     8 1   
    16     7    24 1   
    17     8     9 2   
    18    10    11 1   
    19    10    25 1   
    20    10    26 1   
    21    11    12 ar  
    22    11    17 ar  
    23    12    13 ar  
    24    12    27 1   
    25    13    14 ar  
    26    13    28 1   
    27    14    15 1   
    28    14    16 ar  
    29    15    29 1   
    30    16    17 ar  
    31    16    30 1   
    32    17    31 1   
@<TRIPOS>SUBSTRUCTURE
     1 1G9         1 TEMP              0 ****  ****    0 ROOT
