@<TRIPOS>MOLECULE
1GA
   38    39     1     0     0
SMALL
bcc


@<TRIPOS>ATOM
      1 C01         -0.4530     0.5850    -0.1760 c3         1 1GA      -0.062900
      2 C02          0.8090    -0.0010     0.3540 c2         1 1GA      -0.103400
      3 C03          0.8260    -0.5740     1.5690 c2         1 1GA      -0.175200
      4 C04          1.9720    -1.2030     2.2820 c3         1 1GA       0.004100
      5 C05          2.6970    -2.1780     1.4210 ca         1 1GA      -0.082300
      6 C06          4.0240    -1.9460     1.0450 ca         1 1GA      -0.122500
      7 C07          4.5710    -2.6150    -0.0460 ca         1 1GA      -0.133000
      8 C08          3.7800    -3.5260    -0.7740 ca         1 1GA       0.068600
      9 N09          4.1960    -3.9170    -2.0850 nu         1 1GA      -0.689600
     10 C10          3.5160    -3.1260    -3.1150 c3         1 1GA       0.201000
     11 C11          3.8880    -1.6690    -3.1290 c2         1 1GA      -0.117400
     12 C12          3.1870    -0.6820    -2.5500 c2         1 1GA      -0.156200
     13 C13          1.9510    -0.7990    -1.7400 c3         1 1GA      -0.046200
     14 C14          1.9830     0.1560    -0.5510 c3         1 1GA      -0.041200
     15 C15          5.1280    -1.3770    -3.8920 c3         1 1GA      -0.057900
     16 C16          2.5440    -3.9380    -0.2280 ca         1 1GA      -0.133000
     17 C17          2.0090    -3.2630     0.8620 ca         1 1GA      -0.122500
     18 H1          -1.3150     0.4100     0.5130 hc         1 1GA       0.040367
     19 H2          -0.6970     0.1320    -1.1690 hc         1 1GA       0.040367
     20 H3          -0.3320     1.6880    -0.3160 hc         1 1GA       0.040367
     21 H5          -0.1110    -0.5920     2.1550 ha         1 1GA       0.116000
     22 H7           1.5910    -1.7260     3.2010 hc         1 1GA       0.053200
     23 H8           2.6760    -0.3970     2.6290 hc         1 1GA       0.053200
     24 H9           4.6190    -1.1830     1.5690 ha         1 1GA       0.133500
     25 H10          5.5910    -2.3790    -0.3830 ha         1 1GA       0.138000
     26 H11          3.9880    -4.8890    -2.2340 hn         1 1GA       0.362800
     27 H12          3.8150    -3.5760    -4.1060 h1         1 1GA       0.036200
     28 H13          2.3910    -3.2120    -3.0280 h1         1 1GA       0.036200
     29 H15          3.5420     0.3590    -2.6690 ha         1 1GA       0.117000
     30 H17          1.8140    -1.8490    -1.3620 hc         1 1GA       0.053200
     31 H18          1.0660    -0.5570    -2.3900 hc         1 1GA       0.053200
     32 H19          2.0040     1.2130    -0.9330 hc         1 1GA       0.049200
     33 H20          2.9340    -0.0080     0.0230 hc         1 1GA       0.049200
     34 H21          4.9860    -1.6340    -4.9720 hc         1 1GA       0.042033
     35 H22          5.9720    -1.9940    -3.4930 hc         1 1GA       0.042033
     36 H23          5.4130    -0.2980    -3.8240 hc         1 1GA       0.042033
     37 H24          1.9720    -4.7500    -0.7000 ha         1 1GA       0.138000
     38 H25          1.0140    -3.5330     1.2440 ha         1 1GA       0.133500
@<TRIPOS>BOND
     1     1     2 1   
     2     1    18 1   
     3     1    19 1   
     4     1    20 1   
     5     2     3 2   
     6     2    14 1   
     7     3     4 1   
     8     3    21 1   
     9     4     5 1   
    10     4    22 1   
    11     4    23 1   
    12     5     6 ar  
    13     5    17 ar  
    14     6     7 ar  
    15     6    24 1   
    16     7     8 ar  
    17     7    25 1   
    18     8     9 1   
    19     8    16 ar  
    20     9    10 1   
    21     9    26 1   
    22    10    11 1   
    23    10    27 1   
    24    10    28 1   
    25    11    12 2   
    26    11    15 1   
    27    12    13 1   
    28    12    29 1   
    29    13    14 1   
    30    13    30 1   
    31    13    31 1   
    32    14    32 1   
    33    14    33 1   
    34    15    34 1   
    35    15    35 1   
    36    15    36 1   
    37    16    17 ar  
    38    16    37 1   
    39    17    38 1   
@<TRIPOS>SUBSTRUCTURE
     1 1GA         1 TEMP              0 ****  ****    0 ROOT
