@<TRIPOS>MOLECULE
1GA
   38    40     1     0     0
SMALL
bcc


@<TRIPOS>ATOM
      1 C01          0.0000     0.0000     0.0000 c3         1 1GA      -0.099000
      2 C02          1.5060     0.0000     0.0000 c2         1 1GA      -0.170000
      3 C03          2.2020     0.0000     1.1020 c2         1 1GA      -0.125000
      4 C04          1.4890     0.2860     2.4230 c3         1 1GA      -0.009000
      5 C05          1.1050     1.7370     2.2100 ca         1 1GA      -0.075000
      6 C06         -0.2090     2.1710     2.2190 ca         1 1GA      -0.104500
      7 C07         -0.5290     3.3900     1.6290 ca         1 1GA      -0.097000
      8 C08          0.4680     4.1690     1.0640 ca         1 1GA      -0.107000
      9 N09          0.1900     5.1450     0.0880 nu         1 1GA       0.005000
     10 C10          1.0060     4.9730    -1.1450 c3         1 1GA      -0.059000
     11 C11          0.8020     3.5800    -1.6860 c2         1 1GA       0.040000
     12 C12          1.7050     2.6390    -1.5320 c2         1 1GA      -0.512000
     13 C13          1.4720     1.2710    -2.1180 DU         1 1GA      -0.140000
     14 C14          2.2110     0.1860    -1.3280 c3         1 1GA      -0.051000
     15 C15         -0.4730     3.2550    -2.4290 c3         1 1GA      -0.142000
     16 C16          1.8070     3.8460     1.2970 ca         1 1GA      -0.097000
     17 C17          2.1150     2.6210     1.8490 ca         1 1GA      -0.104500
     18 H1          -0.3610     1.0170     0.0980 hc         1 1GA       0.056667
     19 H2          -0.3610    -0.5930     0.8320 hc         1 1GA       0.056667
     20 H3          -0.3610    -0.4240    -0.9290 hc         1 1GA       0.056667
     21 H5           3.2850     0.0000     1.0590 ha         1 1GA       0.115000
     22 H7           2.1650     0.1800     3.2640 hc         1 1GA       0.064500
     23 H8           0.6120    -0.3390     2.5390 hc         1 1GA       0.064500
     24 H9          -0.9510     1.6400     2.8030 ha         1 1GA       0.111000
     25 H10         -1.5480     3.7570     1.6650 ha         1 1GA       0.112500
     26 H11          0.3510     6.0560     0.4700 hn         1 1GA       0.049000
     27 H12          2.0530     5.1190    -0.9090 h1         1 1GA       0.066500
     28 H13          0.6970     5.6990    -1.8870 h1         1 1GA       0.066500
     29 H15          1.0750     1.8880    -1.0730 DU         1 1GA       0.342000
     30 H17          0.4100     1.0560    -2.1040 ha         1 1GA       0.072000
     31 H18          1.8210     1.2610    -3.1430 ha         1 1GA       0.072000
     32 H19          3.2360     0.4930    -1.1570 hc         1 1GA       0.070000
     33 H20          2.1960    -0.7440    -1.8830 hc         1 1GA       0.070000
     34 H21         -1.0780     2.5850    -1.8300 hc         1 1GA       0.060000
     35 H22         -1.0240     4.1680    -2.6180 hc         1 1GA       0.060000
     36 H23         -0.2300     2.7780    -3.3710 hc         1 1GA       0.060000
     37 H24          2.5710     4.6080     1.2090 ha         1 1GA       0.112500
     38 H25          3.0140     2.6770     2.4510 ha         1 1GA       0.111000
@<TRIPOS>BOND
     1     1     2 1   
     2     1    18 1   
     3     1    19 1   
     4     1    20 1   
     5     2     3 1   
     6     2    14 1   
     7     3     4 1   
     8     3    21 1   
     9     4     5 1   
    10     4    22 1   
    11     4    23 1   
    12     5     6 1   
    13     5    17 1   
    14     6     7 1   
    15     6    24 1   
    16     7     8 1   
    17     7    25 1   
    18     8     9 1   
    19     8    16 1   
    20     9    10 1   
    21     9    26 1   
    22    10    11 1   
    23    10    27 1   
    24    10    28 1   
    25    11    12 1   
    26    11    15 1   
    27    12    13 1   
    28    12    29 1   
    29    13    14 1   
    30    13    29 1   
    31    13    30 1   
    32    13    31 1   
    33    14    32 1   
    34    14    33 1   
    35    15    34 1   
    36    15    35 1   
    37    15    36 1   
    38    16    17 1   
    39    16    37 1   
    40    17    38 1   
@<TRIPOS>SUBSTRUCTURE
     1 1GA         1 TEMP              0 ****  ****    0 ROOT
