@<TRIPOS>MOLECULE
molecule
   38    39     1     0     0
SMALL
bcc


@<TRIPOS>ATOM
      1 C01          0.0000     0.0000     0.0000 c3         1 1GA      -0.134900
      2 C02          1.5060     0.0000     0.0000 c2         1 1GA       0.058600
      3 C03          2.2020     0.0000     1.1020 c2         1 1GA      -0.465200
      4 C04          1.4890     0.2860     2.4230 c3         1 1GA      -0.035900
      5 C05          1.1050     1.7370     2.2100 ca         1 1GA      -0.077300
      6 C06         -0.2090     2.1710     2.2190 ca         1 1GA      -0.116000
      7 C07         -0.5290     3.3900     1.6290 ca         1 1GA      -0.150500
      8 C08          0.4680     4.1690     1.0640 ca         1 1GA       0.078600
      9 N09          0.1900     5.1450     0.0880 nu         1 1GA      -0.705600
     10 C10          1.0060     4.9730    -1.1450 c3         1 1GA       0.217000
     11 C11          0.8020     3.5800    -1.6860 c2         1 1GA      -0.136400
     12 C12          1.7050     2.6390    -1.5320 c2         1 1GA      -0.161200
     13 C13          1.4720     1.2710    -2.1180 c3         1 1GA      -0.049200
     14 C14          2.2110     0.1860    -1.3280 c3         1 1GA      -0.046200
     15 C15         -0.4730     3.2550    -2.4290 c3         1 1GA      -0.046900
     16 C16          1.8070     3.8460     1.2970 ca         1 1GA      -0.150500
     17 C17          2.1150     2.6210     1.8490 ca         1 1GA      -0.116000
     18 H1          -0.3610     1.0190     0.0620 hc         1 1GA       0.055700
     19 H2          -0.3610    -0.5630     0.8520 hc         1 1GA       0.055700
     20 H3          -0.3610    -0.4560    -0.9140 hc         1 1GA       0.055700
     21 H5           1.7750    -0.8280     1.6550 ha         1 1GA       0.288000
     22 H7           2.1650     0.1800     3.2640 hc         1 1GA       0.053700
     23 H8           0.6120    -0.3390     2.5390 hc         1 1GA       0.053700
     24 H9          -0.9510     1.6400     2.8030 ha         1 1GA       0.135000
     25 H10         -1.5480     3.7570     1.6660 ha         1 1GA       0.136000
     26 H11          0.3510     6.0560     0.4700 hn         1 1GA       0.361800
     27 H12          2.0530     5.1200    -0.9090 h1         1 1GA       0.040700
     28 H13          0.6970     5.6990    -1.8870 h1         1 1GA       0.040700
     29 H15          2.6270     2.8540    -1.0050 ha         1 1GA       0.138000
     30 H17          0.4100     1.0560    -2.1040 hc         1 1GA       0.051200
     31 H18          1.8210     1.2610    -3.1430 hc         1 1GA       0.051200
     32 H19          3.2360     0.4930    -1.1570 hc         1 1GA       0.065700
     33 H20          2.1960    -0.7440    -1.8830 hc         1 1GA       0.065700
     34 H21         -1.0630     2.5600    -1.8450 hc         1 1GA       0.040033
     35 H22         -1.0390     4.1640    -2.5900 hc         1 1GA       0.040033
     36 H23         -0.2290     2.8070    -3.3850 hc         1 1GA       0.040033
     37 H24          2.5710     4.6080     1.2090 ha         1 1GA       0.136000
     38 H25          3.0220     2.6430     2.4410 ha         1 1GA       0.135000
@<TRIPOS>BOND
     1    15    11 1
     2    10    11 1
     3    10     9 1
     4    11    12 2
     5     9     8 1
     6     7     8 ar
     7     7     6 ar
     8     8    16 ar
     9    12    13 1
    10    14    13 1
    11    14     2 1
    12     6     5 ar
    13    16    17 ar
    14     3     2 2
    15     3     4 1
    16     2     1 1
    17     5    17 ar
    18     5     4 1
    19     1    18 1
    20     1    19 1
    21     1    20 1
    22     3    21 1
    23     4    22 1
    24     4    23 1
    25     6    24 1
    26     7    25 1
    27     9    26 1
    28    10    27 1
    29    10    28 1
    30    12    29 1
    31    13    30 1
    32    13    31 1
    33    14    32 1
    34    14    33 1
    35    15    34 1
    36    15    35 1
    37    15    36 1
    38    16    37 1
    39    17    38 1
@<TRIPOS>SUBSTRUCTURE
     1 1GA         1 TEMP              0 ****  ****    0 ROOT
