@<TRIPOS>MOLECULE
molecule
   45    48     1     0     0
SMALL
bcc


@<TRIPOS>ATOM
      1 OB           0.0000     0.0000     0.0000 o          1 1GB      -0.641500
      2 CB           1.2130     0.0000     0.0000 c          1 1GB       0.691500
      3 CAB          1.9310     0.0000     1.3160 c3         1 1GB       0.045700
      4 CBB          1.9340     1.4210     1.8850 c3         1 1GB      -0.047100
      5 CGB          2.5040     1.4010     3.2800 ca         1 1GB      -0.105300
      6 CD4          3.8630     1.5690     3.4730 ca         1 1GB      -0.111500
      7 CE4          4.3880     1.5520     4.7500 ca         1 1GB      -0.150500
      8 CZB          3.5510     1.3660     5.8410 ca         1 1GB       0.107100
      9 OHB          4.0650     1.3480     7.0990 oh         1 1GB      -0.521100
     10 CE3          2.1870     1.1970     5.6450 ca         1 1GB      -0.150500
     11 CD3          1.6660     1.2210     4.3660 ca         1 1GB      -0.111500
     12 NB           3.3060    -0.4570     1.1680 ns         1 1GB      -0.570900
     13 CA           3.9460    -0.4620    -0.0050 c          1 1GB       0.691500
     14 OA           5.0920    -0.8570    -0.0410 o          1 1GB      -0.641500
     15 NA           1.8540    -0.0040    -1.1730 ns         1 1GB      -0.564900
     16 CAA          3.3060     0.0020    -1.2790 c3         1 1GB       0.044700
     17 CBA          3.7850     1.4210    -1.5910 c3         1 1GB      -0.013200
     18 CGA          3.2440     1.8510    -2.9310 cc         1 1GB      -0.172400
     19 CD2          1.9300     2.4440    -3.1910 ca         1 1GB      -0.104800
     20 CE2          0.8420     2.7830    -2.3860 ca         1 1GB      -0.080000
     21 CZ3         -0.2720     3.3390    -2.9490 ca         1 1GB      -0.150000
     22 CH2         -0.3320     3.5680    -4.3170 ca         1 1GB      -0.105000
     23 CZ2          0.7310     3.2410    -5.1300 ca         1 1GB      -0.144000
     24 CE1          1.8760     2.6740    -4.5780 ca         1 1GB      -0.039200
     25 NE1          3.0730     2.2480    -5.1080 na         1 1GB      -0.180400
     26 CD1          3.8770     1.7650    -4.1110 cd         1 1GB      -0.087100
     27 H1           1.4120    -0.6600     2.0010 h1         1 1GB       0.095700
     28 H2           2.5410     2.0600     1.2560 hc         1 1GB       0.066700
     29 H3           0.9200     1.8000     1.9140 hc         1 1GB       0.066700
     30 H4           4.5160     1.7140     2.6210 ha         1 1GB       0.139000
     31 H5           5.4530     1.6840     4.9000 ha         1 1GB       0.143500
     32 H6           4.0680     2.2240     7.4490 ho         1 1GB       0.421000
     33 H7           1.5310     1.0540     6.4950 ha         1 1GB       0.143500
     34 H8           0.6020     1.0890     4.2130 ha         1 1GB       0.139000
     35 H9           3.7930    -0.7830     1.9800 hn         1 1GB       0.339500
     36 H10          1.3130    -0.0130    -2.0140 hn         1 1GB       0.344500
     37 H11          3.6030    -0.6600    -2.0830 h1         1 1GB       0.093700
     38 H12          3.4290     2.0990    -0.8250 hc         1 1GB       0.063200
     39 H13          4.8670     1.4400    -1.6160 hc         1 1GB       0.063200
     40 H14          0.8810     2.6080    -1.3170 ha         1 1GB       0.133000
     41 H15         -1.1170     3.6020    -2.3230 ha         1 1GB       0.134000
     42 H16         -1.2220     4.0090    -4.7490 ha         1 1GB       0.132000
     43 H17          0.6750     3.4230    -6.1970 ha         1 1GB       0.126000
     44 H18          3.3200     2.2900    -6.0770 hn         1 1GB       0.298700
     45 H19          4.8770     1.3740    -4.2540 h4         1 1GB       0.169000
@<TRIPOS>BOND
     1    22    23 ar  
     2    22    21 ar  
     3    23    24 ar  
     4    21    20 ar  
     5    24    25 1   
     6    24    19 ar  
     7    25    26 1   
     8     9     8 1   
     9    20    19 ar  
    10     7     8 ar  
    11     7     6 ar  
    12     8    10 ar  
    13    19    18 1   
    14    10    11 ar  
    15     6     5 ar  
    16    11     5 ar  
    17     5     4 1   
    18     4     3 1   
    19    26    18 2   
    20    18    17 1   
    21     3    12 1   
    22     3     2 1   
    23    17    16 1   
    24     1     2 2   
    25    12    13 1   
    26     2    15 1   
    27    13    16 1   
    28    13    14 2   
    29    15    16 1   
    30     3    27 1   
    31     4    28 1   
    32     4    29 1   
    33     6    30 1   
    34     7    31 1   
    35     9    32 1   
    36    10    33 1   
    37    11    34 1   
    38    12    35 1   
    39    15    36 1   
    40    16    37 1   
    41    17    38 1   
    42    17    39 1   
    43    20    40 1   
    44    21    41 1   
    45    22    42 1   
    46    23    43 1   
    47    25    44 1   
    48    26    45 1   
@<TRIPOS>SUBSTRUCTURE
     1 1GB         1 TEMP              0 ****  ****    0 ROOT
