@<TRIPOS>MOLECULE
1GB
   45    48     1     0     0
SMALL
bcc


@<TRIPOS>ATOM
      1 OB           0.0490    -0.2670    -0.1480 o          1 1GB      -0.641500
      2 CB           1.2960    -0.2580    -0.1560 c          1 1GB       0.695500
      3 CAB          2.0730    -0.2690     1.1680 c3         1 1GB       0.040700
      4 CBB          1.7190     1.0310     1.9220 c3         1 1GB      -0.059100
      5 CGB          2.2660     1.0170     3.3040 ca         1 1GB      -0.132300
      6 CD4          3.4830     1.6440     3.5900 ca         1 1GB      -0.090500
      7 CE4          3.9970     1.6360     4.8850 ca         1 1GB      -0.184500
      8 CZB          3.2800     0.9930     5.9030 ca         1 1GB       0.127100
      9 OHB          3.7210     0.9420     7.2050 oh         1 1GB      -0.496100
     10 CE3          2.0530     0.3630     5.6320 ca         1 1GB      -0.184500
     11 CD3          1.5580     0.3820     4.3340 ca         1 1GB      -0.090500
     12 NB           3.4900    -0.4950     1.0290 ns         1 1GB      -0.542900
     13 CA           4.1730    -0.2420    -0.1410 c          1 1GB       0.692500
     14 OA           5.4200    -0.2110    -0.1480 o          1 1GB      -0.644500
     15 NA           1.9790    -0.2930    -1.3510 ns         1 1GB      -0.552900
     16 CAA          3.4000    -0.0880    -1.4600 c3         1 1GB       0.041700
     17 CBA          3.8030     1.2500    -2.1190 c3         1 1GB      -0.025200
     18 CGA          3.2140     2.4430    -1.5040 cc         1 1GB      -0.159400
     19 CD2          3.7850     3.2260    -0.4260 ca         1 1GB      -0.093800
     20 CE2          4.9410     3.1130     0.3510 ca         1 1GB      -0.091000
     21 CZ3          5.1910     4.0720     1.3200 ca         1 1GB      -0.162000
     22 CH2          4.3100     5.1490     1.5300 ca         1 1GB      -0.112000
     23 CZ2          3.1520     5.2990     0.7830 ca         1 1GB      -0.143000
     24 CE1          2.8830     4.3340    -0.2020 ca         1 1GB      -0.049200
     25 NE1          1.8220     4.2170    -1.1030 na         1 1GB      -0.187400
     26 CD1          2.0300     3.0790    -1.8830 cd         1 1GB      -0.092100
     27 H1           1.6580    -1.1400     1.7680 h1         1 1GB       0.091700
     28 H2           2.1130     1.9180     1.3550 hc         1 1GB       0.077200
     29 H3           0.5980     1.1090     1.9480 hc         1 1GB       0.077200
     30 H4           4.0390     2.1600     2.7870 ha         1 1GB       0.143500
     31 H5           4.9530     2.1300     5.1060 ha         1 1GB       0.144000
     32 H6           4.5670     1.4110     7.2520 ho         1 1GB       0.420000
     33 H7           1.5050    -0.1320     6.4460 ha         1 1GB       0.144000
     34 H8           0.5970    -0.1060     4.1120 ha         1 1GB       0.143500
     35 H9           4.0100    -0.4760     1.8810 hn         1 1GB       0.328500
     36 H10          1.4550    -0.1900    -2.1910 hn         1 1GB       0.321500
     37 H11          3.8000    -0.9130    -2.1330 h1         1 1GB       0.083700
     38 H12          4.9260     1.3140    -2.0680 hc         1 1GB       0.069700
     39 H13          3.5100     1.2030    -3.2030 hc         1 1GB       0.069700
     40 H14          5.6300     2.2680     0.1880 ha         1 1GB       0.155000
     41 H15          6.0990     3.9990     1.9370 ha         1 1GB       0.132000
     42 H16          4.5500     5.8910     2.3080 ha         1 1GB       0.131000
     43 H17          2.4690     6.1410     0.9530 ha         1 1GB       0.134000
     44 H18          1.0550     4.8310    -1.1680 hn         1 1GB       0.302700
     45 H19          1.3150     2.8020    -2.6610 h4         1 1GB       0.167000
@<TRIPOS>BOND
     1     1     2 2   
     2     2     3 1   
     3     2    15 1   
     4     3     4 1   
     5     3    12 1   
     6     3    27 1   
     7     4     5 1   
     8     4    28 1   
     9     4    29 1   
    10     5     6 ar  
    11     5    11 ar  
    12     6     7 ar  
    13     6    30 1   
    14     7     8 ar  
    15     7    31 1   
    16     8     9 1   
    17     8    10 ar  
    18     9    32 1   
    19    10    11 ar  
    20    10    33 1   
    21    11    34 1   
    22    12    13 1   
    23    12    35 1   
    24    13    14 2   
    25    13    16 1   
    26    15    16 1   
    27    15    36 1   
    28    16    17 1   
    29    16    37 1   
    30    17    18 1   
    31    17    38 1   
    32    17    39 1   
    33    18    19 1   
    34    18    26 2   
    35    19    20 ar  
    36    19    24 ar  
    37    20    21 ar  
    38    20    40 1   
    39    21    22 ar  
    40    21    41 1   
    41    22    23 ar  
    42    22    42 1   
    43    23    24 ar  
    44    23    43 1   
    45    24    25 1   
    46    25    26 1   
    47    25    44 1   
    48    26    45 1   
@<TRIPOS>SUBSTRUCTURE
     1 1GB         1 TEMP              0 ****  ****    0 ROOT
