@<TRIPOS>MOLECULE
1GB
   45    48     1     0     0
SMALL
bcc


@<TRIPOS>ATOM
      1 OB           0.0000     0.0000     0.0000 o          1 1GB      -0.680500
      2 CB           1.2130     0.0000     0.0000 c          1 1GB       0.600500
      3 CAB          1.9310     0.0000     1.3160 c3         1 1GB      -0.048300
      4 CBB          1.9340     1.4210     1.8850 c3         1 1GB       0.019900
      5 CGB          2.5040     1.4010     3.2800 ca         1 1GB      -0.126300
      6 CD4          3.8630     1.5690     3.4730 ca         1 1GB      -0.077500
      7 CE4          4.3880     1.5520     4.7500 ca         1 1GB      -0.134500
      8 CZB          3.5510     1.3660     5.8410 ca         1 1GB       0.127100
      9 OHB          4.0650     1.3480     7.0990 oh         1 1GB      -0.500100
     10 CE3          2.1870     1.1970     5.6450 ca         1 1GB      -0.134500
     11 CD3          1.6660     1.2210     4.3660 ca         1 1GB      -0.077500
     12 NB           3.3060    -0.4570     1.1680 ns         1 1GB      -0.176900
     13 CA           3.9460    -0.4620    -0.0050 c          1 1GB       0.602500
     14 OA           5.0920    -0.8570    -0.0410 o          1 1GB      -0.679500
     15 NA           1.8540    -0.0040    -1.1730 ns         1 1GB      -0.169900
     16 CAA          3.3060     0.0020    -1.2790 c3         1 1GB      -0.051300
     17 CBA          3.7850     1.4210    -1.5910 c3         1 1GB       0.060800
     18 CGA          3.2440     1.8510    -2.9310 cc         1 1GB      -0.176400
     19 CD2          1.9300     2.4440    -3.1910 ca         1 1GB      -0.101800
     20 CE2          0.8420     2.7830    -2.3860 ca         1 1GB      -0.054000
     21 CZ3         -0.2720     3.3390    -2.9490 ca         1 1GB      -0.119000
     22 CH2         -0.3320     3.5680    -4.3170 ca         1 1GB      -0.082000
     23 CZ2          0.7310     3.2410    -5.1300 ca         1 1GB      -0.101000
     24 CE1          1.8760     2.6740    -4.5780 ca         1 1GB      -0.226200
     25 NE1          3.0730     2.2480    -5.1080 na         1 1GB       0.358600
     26 CD1          3.8770     1.7650    -4.1110 cd         1 1GB      -0.251100
     27 H1           1.4120    -0.6600     2.0010 h1         1 1GB       0.064700
     28 H2           2.5410     2.0600     1.2560 hc         1 1GB       0.036200
     29 H3           0.9200     1.8000     1.9140 hc         1 1GB       0.036200
     30 H4           4.5160     1.7140     2.6210 ha         1 1GB       0.111500
     31 H5           5.4530     1.6840     4.9000 ha         1 1GB       0.116500
     32 H6           4.0680     2.2240     7.4490 ho         1 1GB       0.404000
     33 H7           1.5310     1.0540     6.4950 ha         1 1GB       0.116500
     34 H8           0.6020     1.0890     4.2130 ha         1 1GB       0.111500
     35 H9           3.7930    -0.7830     1.9800 hn         1 1GB       0.198500
     36 H10          1.3130    -0.0130    -2.0140 hn         1 1GB       0.203500
     37 H11          3.6030    -0.6600    -2.0830 h1         1 1GB       0.062700
     38 H12          3.4290     2.0990    -0.8250 hc         1 1GB       0.030200
     39 H13          4.8670     1.4400    -1.6160 hc         1 1GB       0.030200
     40 H14          0.8810     2.6080    -1.3170 ha         1 1GB       0.105000
     41 H15         -1.1170     3.6020    -2.3230 ha         1 1GB       0.107000
     42 H16         -1.2220     4.0090    -4.7490 ha         1 1GB       0.102000
     43 H17          0.6750     3.4230    -6.1970 ha         1 1GB       0.100000
     44 H18          3.3200     2.2900    -6.0770 hn         1 1GB       0.115700
     45 H19          4.8770     1.3740    -4.2540 h4         1 1GB       0.144000
@<TRIPOS>BOND
     1     1     2 2   
     2     2     3 1   
     3     2    15 1   
     4     3     4 1   
     5     3    12 1   
     6     3    27 1   
     7     4     5 1   
     8     4    28 1   
     9     4    29 1   
    10     5     6 ar  
    11     5    11 ar  
    12     6     7 ar  
    13     6    30 1   
    14     7     8 ar  
    15     7    31 1   
    16     8     9 1   
    17     8    10 ar  
    18     9    32 1   
    19    10    11 ar  
    20    10    33 1   
    21    11    34 1   
    22    12    13 1   
    23    12    35 1   
    24    13    14 2   
    25    13    16 1   
    26    15    16 1   
    27    15    36 1   
    28    16    17 1   
    29    16    37 1   
    30    17    18 1   
    31    17    38 1   
    32    17    39 1   
    33    18    19 1   
    34    18    26 2   
    35    19    20 ar  
    36    19    24 ar  
    37    20    21 ar  
    38    20    40 1   
    39    21    22 ar  
    40    21    41 1   
    41    22    23 ar  
    42    22    42 1   
    43    23    24 ar  
    44    23    43 1   
    45    24    25 1   
    46    25    26 1   
    47    25    44 1   
    48    26    45 1   
@<TRIPOS>SUBSTRUCTURE
     1 1GB         1 TEMP              0 ****  ****    0 ROOT
