@<TRIPOS>MOLECULE
molecule
   46    48     1     0     0
SMALL
bcc


@<TRIPOS>ATOM
      1 N1           0.0000     0.0000     0.0000 ns         1 1GC      -0.479400
      2 C2           1.3630     0.0000     0.0000 cc         1 1GC       0.073800
      3 N2           2.0300     0.0020    -1.1990 nz         1 1GC      -0.605600
      4 N3           2.0580     0.0000     1.1160 nd         1 1GC      -0.742100
      5 C4           1.4510    -0.0020     2.3080 cd         1 1GC       0.148800
      6 C5           0.0530    -0.0020     2.3750 cc         1 1GC       0.062800
      7 C6          -0.6820    -0.0010     1.1670 c          1 1GC       0.682000
      8 O6          -1.9010     0.0030     1.1770 o          1 1GC      -0.727500
      9 N7          -0.2870    -0.0030     3.6870 nc         1 1GC      -0.640000
     10 C8           0.7940    -0.0020     4.4120 cd         1 1GC       0.374400
     11 N9           1.8930    -0.0020     3.6030 na         1 1GC      -0.240900
     12 PA           4.7440    -1.9090     9.3900 p5         1 1GC       1.174600
     13 PB           4.6760    -4.2160    11.2710 p5         1 1GC       1.313600
     14 PG           4.5740    -6.8570    12.6120 p5         1 1GC       1.279900
     15 C1'          3.2910    -0.0020     4.0420 c3         1 1GC       0.266800
     16 O1A          6.1110    -1.3960    10.0680 o          1 1GC      -0.805000
     17 O1B          6.0450    -3.7040    11.9480 o          1 1GC      -0.631000
     18 O1G          3.0930    -6.9190    13.2410 o          1 1GC      -0.632167
     19 C2'          3.8180     1.4450     4.1600 c3         1 1GC      -0.154400
     20 O2A          3.5890    -1.3040    10.0920 o          1 1GC      -0.805000
     21 O2B          3.5220    -3.6110    11.9720 o          1 1GC      -0.631000
     22 O2G          4.9950    -8.3200    12.0880 o          1 1GC      -0.632167
     23 C3'          4.7390     1.4090     5.4010 c3         1 1GC       0.101100
     24 O3'          6.0800     1.7440     5.0390 oh         1 1GC      -0.607800
     25 C3A          4.6470    -3.7250     9.5160 c3         1 1GC      -0.443800
     26 O3B          4.5910    -5.8200    11.3810 os         1 1GC      -0.710800
     27 O3G          5.5310    -6.4090    13.6490 o          1 1GC      -0.632167
     28 C4'          4.6590    -0.0550     5.8850 c3         1 1GC       0.128100
     29 O4'          3.3980    -0.5440     5.3780 os         1 1GC      -0.382600
     30 C5'          4.6750    -0.1110     7.4140 c3         1 1GC       0.236400
     31 O5'          4.7170    -1.4740     7.8400 os         1 1GC      -0.595200
     32 HN1         -0.4980     0.0010    -0.8680 hn         1 1GC       0.267500
     33 HN2          1.7980     0.8320    -1.7080 hn         1 1GC       0.348467
     34 HN2A         1.7610    -0.8020    -1.7310 hn         1 1GC       0.348467
     35 H8           0.8170    -0.0030     5.4950 h5         1 1GC       0.069100
     36 H1'          3.9070    -0.5710     3.3570 h2         1 1GC       0.062700
     37 H2'          2.9980     2.1350     4.3180 hc         1 1GC       0.056200
     38 H2'A         4.3850     1.7140     3.2770 hc         1 1GC       0.056200
     39 H3'          4.3670     2.0800     6.1660 h1         1 1GC       0.046700
     40 HO3'         6.2700     2.6260     5.3150 ho         1 1GC       0.387000
     41 H3A          3.7270    -4.0700     9.0590 hc         1 1GC       0.066200
     42 H3AA         5.4930    -4.1670     9.0030 hc         1 1GC       0.066200
     43 H4'          5.4780    -0.6320     5.4730 h1         1 1GC       0.065700
     44 H5'          5.5480     0.4110     7.7860 h1         1 1GC       0.035200
     45 H5'A         3.7800     0.3610     7.8020 h1         1 1GC       0.035200
     46 H23          3.0170    -0.0150    -1.0320 hn         1 1GC       0.348467
@<TRIPOS>BOND
     1     2     1 1   
     2     1     7 1   
     3     1    32 1   
     4     3     2 1   
     5     4     2 2   
     6     3    33 1   
     7     3    34 1   
     8     4     5 1   
     9     5    11 1   
    10     5     6 2   
    11     6     7 1   
    12     6     9 1   
    13     7     8 2   
    14    10     9 2   
    15    11    10 1   
    16    10    35 1   
    17    15    11 1   
    18    31    12 1   
    19    25    12 1   
    20    12    20 1   
    21    12    16 1   
    22    17    13 1   
    23    21    13 1   
    24    13    26 1   
    25    13    25 1   
    26    26    14 1   
    27    27    14 1   
    28    14    18 1   
    29    14    22 1   
    30    19    15 1   
    31    15    29 1   
    32    15    36 1   
    33    19    23 1   
    34    19    37 1   
    35    19    38 1   
    36    24    23 1   
    37    23    28 1   
    38    23    39 1   
    39    24    40 1   
    40    25    41 1   
    41    25    42 1   
    42    28    29 1   
    43    28    30 1   
    44    28    43 1   
    45    30    31 1   
    46    30    44 1   
    47    30    45 1   
    48    46     3 1   
@<TRIPOS>SUBSTRUCTURE
     1 1GC         1 TEMP              0 ****  ****    0 ROOT
