@<TRIPOS>MOLECULE
molecule
   38    39     1     0     0
SMALL
bcc


@<TRIPOS>ATOM
      1 C13          0.0000     0.0000     0.0000 c3         1 1GD      -0.101100
      2 C15         -0.7320     1.1960     2.0740 ca         1 1GD      -0.109500
      3 C17         -1.4170    -0.0020     4.0300 ca         1 1GD      -0.114000
      4 C20          4.3880    -1.1950    -3.2380 ca         1 1GD      -0.119000
      5 C21          4.8480    -1.1950    -4.5410 ca         1 1GD      -0.030000
      6 N1           4.3330    -0.0050    -7.8450 nz         1 1GD      -0.806500
      7 O3           6.3130    -1.2440    -7.0510 o          1 1GD      -0.515300
      8 O4           6.3020     1.2560    -7.0540 o          1 1GD      -0.515300
      9 C5           5.0730     0.0020    -5.1950 ca         1 1GD      -0.341500
     10 C6           4.8370     1.1990    -4.5440 ca         1 1GD      -0.030000
     11 C7           4.3770     1.1980    -3.2400 ca         1 1GD      -0.119000
     12 C8           4.1470     0.0010    -2.5900 ca         1 1GD      -0.009300
     13 C9           3.6450     0.0010    -1.1680 c3         1 1GD       0.145300
     14 N10          2.1810     0.0010    -1.1670 ns         1 1GD      -0.604900
     15 C11          1.5070     0.0000     0.0000 c          1 1GD       0.655100
     16 O12          2.1140     0.0000     1.0500 o          1 1GD      -0.567100
     17 C14         -0.5020    -0.0010     1.4220 ca         1 1GD      -0.082300
     18 C16         -1.1870     1.1960     3.3790 ca         1 1GD      -0.121000
     19 C18         -1.1930    -1.1980     3.3750 ca         1 1GD      -0.121000
     20 C19         -0.7330    -1.1980     2.0730 ca         1 1GD      -0.109500
     21 H1          -0.3610    -0.8840    -0.5110 hc         1 1GD       0.064700
     22 H2          -0.3610     0.8850    -0.5100 hc         1 1GD       0.064700
     23 H3          -0.5520     2.1350     1.5630 ha         1 1GD       0.125000
     24 H4          -1.7750    -0.0020     5.0530 ha         1 1GD       0.136000
     25 H5           4.2100    -2.1340    -2.7270 ha         1 1GD       0.171000
     26 H6           5.0370    -2.1330    -5.0480 ha         1 1GD       0.158000
     27 H7           4.6300    -0.0050    -8.8010 hn         1 1GD       0.491133
     28 H8           3.7660    -0.8110    -7.6720 hn         1 1GD       0.491133
     29 H9           5.0150     2.1380    -5.0550 ha         1 1GD       0.158000
     30 H10          4.1900     2.1360    -2.7310 ha         1 1GD       0.171000
     31 H11          4.0070    -0.8840    -0.6580 h1         1 1GD       0.078700
     32 H12          4.0070     0.8850    -0.6570 h1         1 1GD       0.078700
     33 H13          1.6800     0.0010    -2.0340 hn         1 1GD       0.308500
     34 H14         -1.3650     2.1340     3.8910 ha         1 1GD       0.135000
     35 H15         -1.3730    -2.1370     3.8850 ha         1 1GD       0.135000
     36 H16         -0.5570    -2.1360     1.5600 ha         1 1GD       0.125000
     37 H131         3.7560     0.7940    -7.6750 hn         1 1GD       0.491133
     38 S02          5.6610     0.0030    -6.8560 sy         1 1GD       1.228200
@<TRIPOS>BOND
     1    16    15 2   
     2    19    20 ar  
     3    19     3 ar  
     4    20    17 ar  
     5    15     1 1   
     6    15    14 1   
     7     3    18 ar  
     8    17     1 1   
     9    17     2 ar  
    10    13    14 1   
    11    13    12 1   
    12    18     2 ar  
    13    12    11 ar  
    14    12     4 ar  
    15    11    10 ar  
    16     4     5 ar  
    17    10     9 ar  
    18     5     9 ar  
    19     9    38 1   
    20     6    38 1   
    21     8    38 2   
    22    38     7 2   
    23     1    21 1   
    24     1    22 1   
    25     2    23 1   
    26     3    24 1   
    27     4    25 1   
    28     5    26 1   
    29     6    27 1   
    30     6    28 1   
    31    10    29 1   
    32    11    30 1   
    33    13    31 1   
    34    13    32 1   
    35    14    33 1   
    36    18    34 1   
    37    19    35 1   
    38    20    36 1   
    39    37     6 1   
@<TRIPOS>SUBSTRUCTURE
     1 1GD         1 TEMP              0 ****  ****    0 ROOT
