@<TRIPOS>MOLECULE
1GD
   39    40     1     0     0
SMALL
bcc


@<TRIPOS>ATOM
      1 C13         -0.0840    -0.1450     0.9020 c3         1 1GD      -0.093100
      2 C15         -0.5970     1.4770    -0.9320 ca         1 1GD      -0.126500
      3 C17         -0.1960     3.8430    -0.6410 ca         1 1GD      -0.083000
      4 C20          4.0150    -1.9360    -2.6390 ca         1 1GD      -0.129000
      5 C21          4.7580    -2.0370    -3.8110 ca         1 1GD       0.018500
      6 N1           7.9990    -1.8170    -5.1100 nz         1 1GD      -0.798500
      7 O3           5.8900    -2.0530    -6.4950 o          1 1GD      -0.540800
      8 O4           6.7970     0.1720    -6.1200 o          1 1GD      -0.540800
      9 C5           5.5950    -0.9860    -4.2360 ca         1 1GD      -0.490500
     10 C6           5.6570     0.1730    -3.4370 ca         1 1GD       0.018500
     11 C7           4.9140     0.2810    -2.2640 ca         1 1GD      -0.129000
     12 C8           4.0900    -0.7740    -1.8590 ca         1 1GD      -0.042300
     13 C9           3.3490    -0.6880    -0.5580 c3         1 1GD       0.134100
     14 N10          1.8690    -0.6300    -0.7140 ny         1 1GD      -0.691800
     15 C11          1.1300    -0.9730     0.5900 c          1 1GD       0.558100
     16 O12          1.5960    -1.9070     1.2160 o          1 1GD      -0.400100
     17 C14         -0.0630     1.2280     0.3410 ca         1 1GD      -0.189300
     18 C16         -0.6600     2.7800    -1.4210 ca         1 1GD      -0.114000
     19 C18          0.3320     3.6000     0.6270 ca         1 1GD      -0.114000
     20 C19          0.3970     2.2960     1.1200 ca         1 1GD      -0.126500
     21 S02          6.3620    -1.0550    -5.6740 sy         1 1GD       1.468200
     22 H1          -0.1660    -0.1130     2.0300 hc         1 1GD       0.139200
     23 H2          -0.9800    -0.7200     0.5220 hc         1 1GD       0.139200
     24 H3          -1.0200     0.6530    -1.5270 ha         1 1GD       0.143000
     25 H4          -0.2670     4.8770    -1.0210 ha         1 1GD       0.170000
     26 H5           3.3860    -2.7870    -2.3240 ha         1 1GD       0.177500
     27 H6           4.6720    -2.9540    -4.4280 ha         1 1GD       0.188500
     28 H7           8.7800    -1.1970    -5.3410 hn         1 1GD       0.469133
     29 H8           8.1660    -2.7020    -5.5960 hn         1 1GD       0.469133
     30 H9           6.2890     1.0270    -3.7560 ha         1 1GD       0.188500
     31 H10          4.9900     1.2020    -1.6590 ha         1 1GD       0.177500
     32 H11          3.6030    -1.6020     0.0670 hx         1 1GD       0.135700
     33 H12          3.6690     0.2270     0.0230 hx         1 1GD       0.135700
     34 H13          1.5800     0.3120    -1.0180 hn         1 1GD       0.465300
     35 H14         -1.1030     2.9760    -2.4110 ha         1 1GD       0.166500
     36 H15          0.6780     4.4400     1.2520 ha         1 1GD       0.166500
     37 H16          0.7810     2.1180     2.1380 ha         1 1GD       0.143000
     38 H131         8.0440    -2.0040    -4.1120 hn         1 1GD       0.469133
     39 H102         1.5740    -1.3020    -1.4310 hn         1 1GD       0.465300
@<TRIPOS>BOND
     1     1    15 1   
     2     1    17 1   
     3     1    22 1   
     4     1    23 1   
     5     2    17 ar  
     6     2    18 ar  
     7     2    24 1   
     8     3    18 ar  
     9     3    19 ar  
    10     3    25 1   
    11     4     5 ar  
    12     4    12 ar  
    13     4    26 1   
    14     5     9 ar  
    15     5    27 1   
    16     6    21 1   
    17     6    28 1   
    18     6    29 1   
    19     6    38 1   
    20     7    21 2   
    21     8    21 2   
    22     9    10 ar  
    23     9    21 1   
    24    10    11 ar  
    25    10    30 1   
    26    11    12 ar  
    27    11    31 1   
    28    12    13 1   
    29    13    14 1   
    30    13    32 1   
    31    13    33 1   
    32    14    15 1   
    33    14    34 1   
    34    14    39 1   
    35    15    16 2   
    36    17    20 ar  
    37    18    35 1   
    38    19    20 ar  
    39    19    36 1   
    40    20    37 1   
@<TRIPOS>SUBSTRUCTURE
     1 1GD         1 TEMP              0 ****  ****    0 ROOT
