@<TRIPOS>MOLECULE
1GE
   65    70     1     0     0
SMALL
bcc


@<TRIPOS>ATOM
      1 C1          -0.2580    -1.7860     1.3200 ca         1 1GE      -0.236900
      2 C2           1.0520    -1.4660     0.9460 ca         1 1GE      -0.048000
      3 C3           1.7730    -0.5450     1.6900 ca         1 1GE      -0.179000
      4 C4           1.1870     0.0520     2.8280 ca         1 1GE       0.169600
      5 C5          -0.2110    -0.1110     3.0710 ca         1 1GE      -0.118300
      6 C6          -0.9070    -1.0590     2.3270 ca         1 1GE      -0.039000
      7 C10         -0.9370    -2.9470     0.6930 ce         1 1GE       0.631800
      8 N11         -2.0600    -2.8580     0.0860 n2         1 1GE      -0.731100
      9 N12         -0.1530    -4.2070     0.9000 nz         1 1GE      -0.918600
     10 N13          1.9480     0.7640     3.7700 nu         1 1GE      -0.693600
     11 C14          1.4530     0.4870     5.1300 c3         1 1GE       0.228800
     12 C15          0.0690     1.1240     5.3030 c3         1 1GE      -0.050700
     13 C16         -0.8540     0.7840     4.0850 c3         1 1GE       0.039900
     14 C17         -0.6360     0.5970     6.5650 c3         1 1GE      -0.036100
     15 C18         -1.9890     0.1690     6.1110 ca         1 1GE      -0.078300
     16 C19         -2.1210     0.2810     4.7080 ca         1 1GE      -0.086300
     17 C24         -3.0510    -0.2590     6.8930 ca         1 1GE      -0.117000
     18 C25         -4.2690    -0.5590     6.2710 ca         1 1GE      -0.125000
     19 C26         -4.4150    -0.4120     4.8940 ca         1 1GE      -0.134000
     20 C27         -3.3420     0.0180     4.1030 ca         1 1GE      -0.121000
     21 C32          2.4930     0.8180     6.1700 ca         1 1GE      -0.088300
     22 C34          3.4590    -0.1650     6.4750 cp         1 1GE      -0.020000
     23 C35          4.4320     0.0920     7.4420 ca         1 1GE      -0.175000
     24 C36          4.4590     1.3250     8.1010 ca         1 1GE       0.108100
     25 C37          3.5000     2.3180     7.7830 ca         1 1GE       0.095100
     26 C38          2.5270     2.0550     6.8150 ca         1 1GE      -0.153000
     27 C41          3.4190    -1.4430     5.7530 cp         1 1GE      -0.056000
     28 C42          2.5440    -2.4570     6.1710 ca         1 1GE      -0.148500
     29 C43          2.2120    -3.4910     5.2980 ca         1 1GE      -0.091000
     30 C44          2.7580    -3.5220     4.0100 ca         1 1GE      -0.125600
     31 C45          3.7840    -2.6310     3.6770 ca         1 1GE      -0.091000
     32 C46          4.1130    -1.5900     4.5440 ca         1 1GE      -0.148500
     33 C51          2.0940    -4.3300     2.9440 c          1 1GE       0.917200
     34 O52          1.0470    -5.0070     3.2170 o          1 1GE      -0.856300
     35 O53          2.4680    -4.2230     1.7290 o          1 1GE      -0.856300
     36 O54          3.6130     3.4990     8.4890 os         1 1GE      -0.302900
     37 C55          2.7190     4.5390     8.1100 c3         1 1GE       0.109700
     38 O59          5.3890     1.6390     9.0630 oh         1 1GE      -0.474100
     39 H1           1.5430    -1.9770     0.1030 ha         1 1GE       0.144000
     40 H2           2.8200    -0.3320     1.4280 ha         1 1GE       0.151000
     41 H3          -1.9650    -1.2670     2.5490 ha         1 1GE       0.152000
     42 H4          -2.4870    -3.6780    -0.2900 hn         1 1GE       0.413400
     43 H5          -0.1950    -4.5060     1.9110 hn         1 1GE       0.480467
     44 H6          -0.4650    -4.9720     0.3110 hn         1 1GE       0.480467
     45 H7           2.9360     0.6150     3.6830 hn         1 1GE       0.406800
     46 H8           1.2570    -0.6360     5.2280 h1         1 1GE       0.067700
     47 H9           0.1620     2.2390     5.3640 hc         1 1GE       0.061700
     48 H10         -1.0800     1.7500     3.5440 hc         1 1GE       0.075700
     49 H11         -0.7070     1.4010     7.3400 hc         1 1GE       0.062700
     50 H12         -0.0790    -0.2640     7.0180 hc         1 1GE       0.062700
     51 H13         -2.9430    -0.3570     7.9820 ha         1 1GE       0.136000
     52 H14         -5.1180    -0.9040     6.8790 ha         1 1GE       0.132000
     53 H15         -5.3830    -0.6290     4.4190 ha         1 1GE       0.131000
     54 H16         -3.4800     0.1580     3.0210 ha         1 1GE       0.135000
     55 H17          5.1810    -0.6770     7.6840 ha         1 1GE       0.147000
     56 H18          1.7850     2.8240     6.5560 ha         1 1GE       0.146000
     57 H19          2.0730    -2.3990     7.1630 ha         1 1GE       0.132000
     58 H20          1.4710    -4.2560     5.5810 ha         1 1GE       0.157000
     59 H21          4.2770    -2.7280     2.6960 ha         1 1GE       0.157000
     60 H22          4.8810    -0.8560     4.2610 ha         1 1GE       0.132000
     61 H24          1.6610     4.2430     8.3140 h1         1 1GE       0.044367
     62 H25          2.8500     4.8060     7.0340 h1         1 1GE       0.044367
     63 H26          3.0230     5.3910     8.7690 h1         1 1GE       0.044367
     64 H27          5.9650     0.8670     9.1750 ho         1 1GE       0.417000
     65 H123         0.8770    -4.0410     0.7460 hn         1 1GE       0.480467
@<TRIPOS>BOND
     1     1     2 ar  
     2     1     6 ar  
     3     1     7 1   
     4     2     3 ar  
     5     2    39 1   
     6     3     4 ar  
     7     3    40 1   
     8     4     5 ar  
     9     4    10 1   
    10     5     6 ar  
    11     5    13 1   
    12     6    41 1   
    13     7     8 2   
    14     7     9 1   
    15     8    42 1   
    16     9    43 1   
    17     9    44 1   
    18     9    65 1   
    19    10    11 1   
    20    10    45 1   
    21    11    12 1   
    22    11    21 1   
    23    11    46 1   
    24    12    13 1   
    25    12    14 1   
    26    12    47 1   
    27    13    16 1   
    28    13    48 1   
    29    14    15 1   
    30    14    49 1   
    31    14    50 1   
    32    15    16 ar  
    33    15    17 ar  
    34    16    20 ar  
    35    17    18 ar  
    36    17    51 1   
    37    18    19 ar  
    38    18    52 1   
    39    19    20 ar  
    40    19    53 1   
    41    20    54 1   
    42    21    22 ar  
    43    21    26 ar  
    44    22    23 ar  
    45    22    27 1   
    46    23    24 ar  
    47    23    55 1   
    48    24    25 ar  
    49    24    38 1   
    50    25    26 ar  
    51    25    36 1   
    52    26    56 1   
    53    27    28 ar  
    54    27    32 ar  
    55    28    29 ar  
    56    28    57 1   
    57    29    30 ar  
    58    29    58 1   
    59    30    31 ar  
    60    30    33 1   
    61    31    32 ar  
    62    31    59 1   
    63    32    60 1   
    64    33    34 1   
    65    33    35 1   
    66    36    37 1   
    67    37    61 1   
    68    37    62 1   
    69    37    63 1   
    70    38    64 1   
@<TRIPOS>SUBSTRUCTURE
     1 1GE         1 TEMP              0 ****  ****    0 ROOT
