@<TRIPOS>MOLECULE
molecule
   65    70     1     0     0
SMALL
bcc


@<TRIPOS>ATOM
      1 C1           0.0000     0.0000     0.0000 ca         1 1GE      -0.248900
      2 C2           1.3970     0.0000     0.0000 ca         1 1GE      -0.118000
      3 C3           2.0770     0.0000     1.1960 ca         1 1GE      -0.144000
      4 C4           1.3770    -0.0010     2.4020 ca         1 1GE       0.201600
      5 C5          -0.0090     0.0020     2.4110 ca         1 1GE      -0.107300
      6 C6          -0.6950     0.0010     1.2080 ca         1 1GE      -0.011000
      7 C10         -0.7410     0.0050    -1.2800 ce         1 1GE       0.554800
      8 N11         -2.0440     0.0100    -1.2780 n2         1 1GE      -0.706100
      9 N12         -0.0530     0.0050    -2.4740 nz         1 1GE      -0.800600
     10 N13          2.0930    -0.0090     3.5940 nu         1 1GE      -0.706600
     11 C14          1.4430     0.3110     4.8550 c3         1 1GE       0.240800
     12 C15          0.0360    -0.2170     4.9350 c3         1 1GE      -0.092700
     13 C16         -0.8100     0.0090     3.6820 c3         1 1GE       0.029900
     14 C17          0.0120    -1.7510     5.1050 c3         1 1GE      -0.039100
     15 C18         -1.2860    -2.1760     4.4740 ca         1 1GE      -0.075300
     16 C19         -1.7660    -1.1580     3.6550 ca         1 1GE      -0.107300
     17 C24         -1.9770    -3.3680     4.6200 ca         1 1GE      -0.099000
     18 C25         -3.1680    -3.4980     3.9180 ca         1 1GE      -0.119000
     19 C26         -3.6450    -2.4880     3.1080 ca         1 1GE      -0.134000
     20 C27         -2.9540    -1.2920     2.9570 ca         1 1GE      -0.121000
     21 C32          1.4100     1.8090     5.0170 ca         1 1GE      -0.071300
     22 C34          1.2510     2.3690     6.2840 cp         1 1GE      -0.009000
     23 C35          1.2220     3.7560     6.4330 ca         1 1GE      -0.120000
     24 C36          1.3490     4.5710     5.3230 ca         1 1GE       0.088100
     25 C37          1.5070     4.0050     4.0590 ca         1 1GE       0.099100
     26 C38          1.5420     2.6260     3.9140 ca         1 1GE      -0.197000
     27 C41          1.1140     1.4930     7.4710 cp         1 1GE      -0.107000
     28 C42          2.1060     0.5550     7.7640 ca         1 1GE      -0.151000
     29 C43          1.9800    -0.2580     8.8660 ca         1 1GE      -0.102000
     30 C44          0.8580    -0.1470     9.6930 ca         1 1GE      -0.081600
     31 C45         -0.1340     0.7920     9.3990 ca         1 1GE      -0.102000
     32 C46         -0.0030     1.6090     8.2990 ca         1 1GE      -0.151000
     33 C51          0.7220    -1.0200    10.8740 c          1 1GE       0.874200
     34 O52         -0.3600    -0.9120    11.6710 o          1 1GE      -0.823800
     35 O53          1.5850    -1.8370    11.1290 o          1 1GE      -0.823800
     36 O54          1.6320     4.8060     2.9680 os         1 1GE      -0.311900
     37 C55          1.7900     4.1600     1.7030 c3         1 1GE       0.130700
     38 O59          1.3200     5.9220     5.4640 oh         1 1GE      -0.504100
     39 H1           1.9410    -0.0000    -0.9360 ha         1 1GE       0.096000
     40 H2           3.1600    -0.0000     1.2000 ha         1 1GE       0.161000
     41 H3          -1.7780     0.0010     1.2060 ha         1 1GE       0.171000
     42 H4          -2.5470     0.0140    -2.1430 hn         1 1GE       0.421400
     43 H5           0.5210    -0.8130    -2.5280 hn         1 1GE       0.460133
     44 H6           0.5240     0.8210    -2.5280 hn         1 1GE       0.460133
     45 H7           2.5830    -0.8770     3.6830 hn         1 1GE       0.405800
     46 H8           2.0210    -0.1200     5.6630 h1         1 1GE       0.118700
     47 H9          -0.4620     0.2390     5.7820 hc         1 1GE       0.112700
     48 H10         -1.3610     0.9380     3.7690 hc         1 1GE       0.085700
     49 H11          0.8420    -2.1910     4.5670 hc         1 1GE       0.068200
     50 H12          0.0050    -2.0010     6.1590 hc         1 1GE       0.068200
     51 H13         -1.6060    -4.1630     5.2550 ha         1 1GE       0.151000
     52 H14         -3.7370    -4.4150     4.0080 ha         1 1GE       0.133000
     53 H15         -4.5780    -2.6310     2.5770 ha         1 1GE       0.126000
     54 H16         -3.3300    -0.4990     2.3210 ha         1 1GE       0.126000
     55 H17          1.0980     4.1940     7.4160 ha         1 1GE       0.162000
     56 H18          1.6650     2.1900     2.9300 ha         1 1GE       0.129000
     57 H19          2.9750     0.4690     7.1240 ha         1 1GE       0.110000
     58 H20          2.7500    -0.9860     9.0930 ha         1 1GE       0.159000
     59 H21         -1.0030     0.8810    10.0400 ha         1 1GE       0.159000
     60 H22         -0.7720     2.3370     8.0710 ha         1 1GE       0.110000
     61 H24          1.9110     4.9070     0.9280 h1         1 1GE       0.031033
     62 H25          2.6660     3.5230     1.7300 h1         1 1GE       0.031033
     63 H26          0.9140     3.5590     1.4920 h1         1 1GE       0.031033
     64 H27          0.4440     6.1980     5.6760 ho         1 1GE       0.415000
     65 H123        -0.7040    -0.0020    -3.2340 hn         1 1GE       0.460133
@<TRIPOS>BOND
     1    38    24 1   
     2    24    23 ar  
     3    24    25 ar  
     4    36    25 1   
     5    36    37 1   
     6    23    22 ar  
     7    25    26 ar  
     8    35    33 1   
     9    32    31 ar  
    10    32    27 ar  
    11    31    30 ar  
    12    22    27 1   
    13    22    21 ar  
    14    27    28 ar  
    15    30    33 1   
    16    30    29 ar  
    17    33    34 1   
    18    26    21 ar  
    19    28    29 ar  
    20    21    11 1   
    21    10    11 1   
    22    10     4 1   
    23    11    12 1   
    24     3     4 ar  
    25     3     2 ar  
    26     4     5 ar  
    27    12    14 1   
    28    12    13 1   
    29    14    15 1   
    30     2     1 ar  
    31     5    13 1   
    32     5     6 ar  
    33    13    16 1   
    34    15    17 ar  
    35    15    16 ar  
    36    17    18 ar  
    37    16    20 ar  
    38     1     6 ar  
    39     1     7 1   
    40    18    19 ar  
    41    20    19 ar  
    42     8     7 2   
    43     7     9 1   
    44     2    39 1   
    45     3    40 1   
    46     6    41 1   
    47     8    42 1   
    48     9    43 1   
    49     9    44 1   
    50    10    45 1   
    51    11    46 1   
    52    12    47 1   
    53    13    48 1   
    54    14    49 1   
    55    14    50 1   
    56    17    51 1   
    57    18    52 1   
    58    19    53 1   
    59    20    54 1   
    60    23    55 1   
    61    26    56 1   
    62    28    57 1   
    63    29    58 1   
    64    31    59 1   
    65    32    60 1   
    66    37    61 1   
    67    37    62 1   
    68    37    63 1   
    69    38    64 1   
    70    65     9 1   
@<TRIPOS>SUBSTRUCTURE
     1 1GE         1 TEMP              0 ****  ****    0 ROOT
