@<TRIPOS>MOLECULE
1GE
   65    70     1     0     0
SMALL
bcc


@<TRIPOS>ATOM
      1 C1           0.0000     0.0000     0.0000 ca         1 1GE      -0.287900
      2 C2           1.3970     0.0000     0.0000 ca         1 1GE      -0.082000
      3 C3           2.0770     0.0000     1.1960 ca         1 1GE      -0.111000
      4 C4           1.3770    -0.0010     2.4020 ca         1 1GE       0.100600
      5 C5          -0.0090     0.0020     2.4110 ca         1 1GE      -0.092300
      6 C6          -0.6950     0.0010     1.2080 ca         1 1GE      -0.028000
      7 C10         -0.7410     0.0050    -1.2800 ce         1 1GE       0.232800
      8 N11         -2.0440     0.0100    -1.2780 n2         1 1GE      -0.535100
      9 N12         -0.0530     0.0050    -2.4740 nz         1 1GE       0.189400
     10 N13          2.0930    -0.0090     3.5940 nu         1 1GE      -0.370600
     11 C14          1.4430     0.3110     4.8550 c3         1 1GE       0.159800
     12 C15          0.0360    -0.2170     4.9350 c3         1 1GE      -0.080700
     13 C16         -0.8100     0.0090     3.6820 c3         1 1GE       0.078900
     14 C17          0.0120    -1.7510     5.1050 c3         1 1GE       0.029900
     15 C18         -1.2860    -2.1760     4.4740 ca         1 1GE      -0.078300
     16 C19         -1.7660    -1.1580     3.6550 ca         1 1GE      -0.117300
     17 C24         -1.9770    -3.3680     4.6200 ca         1 1GE      -0.060000
     18 C25         -3.1680    -3.4980     3.9180 ca         1 1GE      -0.090000
     19 C26         -3.6450    -2.4880     3.1080 ca         1 1GE      -0.108000
     20 C27         -2.9540    -1.2920     2.9570 ca         1 1GE      -0.102000
     21 C32          1.4100     1.8090     5.0170 ca         1 1GE      -0.085300
     22 C34          1.2510     2.3690     6.2840 cp         1 1GE       0.014000
     23 C35          1.2220     3.7560     6.4330 ca         1 1GE      -0.105000
     24 C36          1.3490     4.5710     5.3230 ca         1 1GE       0.101100
     25 C37          1.5070     4.0050     4.0590 ca         1 1GE       0.100100
     26 C38          1.5420     2.6260     3.9140 ca         1 1GE      -0.204000
     27 C41          1.1140     1.4930     7.4710 cp         1 1GE      -0.109000
     28 C42          2.1060     0.5550     7.7640 ca         1 1GE      -0.134500
     29 C43          1.9800    -0.2580     8.8660 ca         1 1GE      -0.072500
     30 C44          0.8580    -0.1470     9.6930 ca         1 1GE      -0.080600
     31 C45         -0.1340     0.7920     9.3990 ca         1 1GE      -0.072500
     32 C46         -0.0030     1.6090     8.2990 ca         1 1GE      -0.134500
     33 C51          0.7220    -1.0200    10.8740 c          1 1GE       0.963200
     34 O52         -0.3600    -0.9120    11.6710 o          1 1GE      -0.871300
     35 O53          1.5850    -1.8370    11.1290 o          1 1GE      -0.871300
     36 O54          1.6320     4.8060     2.9680 os         1 1GE      -0.287900
     37 C55          1.7900     4.1600     1.7030 c3         1 1GE       0.241700
     38 O59          1.3200     5.9220     5.4640 oh         1 1GE      -0.484100
     39 H1           1.9410    -0.0000    -0.9360 ha         1 1GE       0.075000
     40 H2           3.1600    -0.0000     1.2000 ha         1 1GE       0.131000
     41 H3          -1.7780     0.0010     1.2060 ha         1 1GE       0.120000
     42 H4          -2.5440     0.0100    -0.4110 hn         1 1GE       0.384400
     43 H5           0.5210    -0.8140    -2.5290 hn         1 1GE       0.217800
     44 H6          -0.7040     0.0070    -3.2340 hn         1 1GE       0.217800
     45 H7           2.5830    -0.8770     3.6830 hn         1 1GE       0.277800
     46 H8           2.0210    -0.1200     5.6630 h1         1 1GE       0.096700
     47 H9          -0.4620     0.2390     5.7820 hc         1 1GE       0.086700
     48 H10         -1.3610     0.9380     3.7690 hc         1 1GE       0.053700
     49 H11          0.0050    -2.0010     6.1590 hc         1 1GE       0.037700
     50 H12          0.8420    -2.1910     4.5670 hc         1 1GE       0.037700
     51 H13         -1.6060    -4.1630     5.2550 ha         1 1GE       0.123000
     52 H14         -3.7370    -4.4150     4.0080 ha         1 1GE       0.106000
     53 H15         -4.5780    -2.6310     2.5770 ha         1 1GE       0.100000
     54 H16         -3.3300    -0.4990     2.3210 ha         1 1GE       0.094000
     55 H17          1.0980     4.1940     7.4160 ha         1 1GE       0.132000
     56 H18          1.6650     2.1900     2.9300 ha         1 1GE       0.120000
     57 H19          2.9750     0.4690     7.1240 ha         1 1GE       0.091500
     58 H20          2.7500    -0.9860     9.0930 ha         1 1GE       0.132500
     59 H21         -1.0030     0.8810    10.0400 ha         1 1GE       0.132500
     60 H22         -0.7720     2.3370     8.0710 ha         1 1GE       0.091500
     61 H24          0.9140     3.5600     1.4920 h1         1 1GE      -0.011300
     62 H25          1.9110     4.9070     0.9280 h1         1 1GE      -0.011300
     63 H26          2.6660     3.5230     1.7300 h1         1 1GE      -0.011300
     64 H27          0.4440     6.1980     5.6760 ho         1 1GE       0.399000
     65 H123         0.5180     0.8250    -2.5310 hn         1 1GE       0.217800
@<TRIPOS>BOND
     1     1     2 ar  
     2     1     6 ar  
     3     1     7 1   
     4     2     3 ar  
     5     2    39 1   
     6     3     4 ar  
     7     3    40 1   
     8     4     5 ar  
     9     4    10 1   
    10     5     6 ar  
    11     5    13 1   
    12     6    41 1   
    13     7     8 2   
    14     7     9 1   
    15     8    42 1   
    16     9    43 1   
    17     9    44 1   
    18     9    65 1   
    19    10    11 1   
    20    10    45 1   
    21    11    12 1   
    22    11    21 1   
    23    11    46 1   
    24    12    13 1   
    25    12    14 1   
    26    12    47 1   
    27    13    16 1   
    28    13    48 1   
    29    14    15 1   
    30    14    49 1   
    31    14    50 1   
    32    15    16 ar  
    33    15    17 ar  
    34    16    20 ar  
    35    17    18 ar  
    36    17    51 1   
    37    18    19 ar  
    38    18    52 1   
    39    19    20 ar  
    40    19    53 1   
    41    20    54 1   
    42    21    22 ar  
    43    21    26 ar  
    44    22    23 ar  
    45    22    27 1   
    46    23    24 ar  
    47    23    55 1   
    48    24    25 ar  
    49    24    38 1   
    50    25    26 ar  
    51    25    36 1   
    52    26    56 1   
    53    27    28 ar  
    54    27    32 ar  
    55    28    29 ar  
    56    28    57 1   
    57    29    30 ar  
    58    29    58 1   
    59    30    31 ar  
    60    30    33 1   
    61    31    32 ar  
    62    31    59 1   
    63    32    60 1   
    64    33    34 1   
    65    33    35 1   
    66    36    37 1   
    67    37    61 1   
    68    37    62 1   
    69    37    63 1   
    70    38    64 1   
@<TRIPOS>SUBSTRUCTURE
     1 1GE         1 TEMP              0 ****  ****    0 ROOT
