@<TRIPOS>MOLECULE
1GG
   65    68     1     0     0
SMALL
bcc


@<TRIPOS>ATOM
      1 C1           0.0000     0.0000     0.0000 ca         1 1GG      -0.228900
      2 C2           1.3950     0.0000     0.0000 ca         1 1GG      -0.072500
      3 C3           2.0830     0.0000     1.1960 ca         1 1GG      -0.053500
      4 C4           1.3920    -0.0000     2.3940 ca         1 1GG      -0.058300
      5 Cl4          7.2110     3.4570     8.7760 cl         1 1GG       0.013600
      6 C5           0.0080    -0.0010     2.4020 ca         1 1GG      -0.053500
      7 C6          -0.6900     0.0050     1.2120 ca         1 1GG      -0.072500
      8 C11         -0.7440     0.0010    -1.2800 ce         1 1GG       0.211800
      9 N12         -0.0960     0.0010    -2.4090 n2         1 1GG      -0.485100
     10 N13         -2.1220     0.0000    -1.2760 nz         1 1GG       0.189400
     11 C14          2.1490    -0.0020     3.6970 c3         1 1GG       0.101300
     12 N15          2.3950     1.3790     4.1200 ns         1 1GG      -0.204900
     13 C18          3.0610     1.6240     5.2660 c          1 1GG       0.570100
     14 O19          3.4560     0.7020     5.9470 o          1 1GG      -0.607100
     15 C20          3.3130     3.0450     5.7020 c3         1 1GG      -0.061300
     16 C21          4.5520     3.6120     4.9770 c3         1 1GG      -0.027400
     17 C22          5.6820     3.2980     5.9820 c3         1 1GG       0.019200
     18 C23          4.9810     3.2260     7.3260 cc         1 1GG      -0.241600
     19 N24          3.6390     3.0870     7.1350 n          1 1GG       0.150000
     20 C28          6.7250     4.4170     5.9820 c3         1 1GG      -0.047400
     21 C29          6.3360     1.9560     5.6490 c3         1 1GG      -0.047400
     22 C30          7.2300     4.6440     4.5560 c3         1 1GG      -0.020600
     23 C36          7.3640     1.6080     6.7270 c3         1 1GG      -0.020600
     24 C42          5.4960     3.2810     8.5780 cd         1 1GG       0.128000
     25 N43          4.7260     3.2050     9.6620 nd         1 1GG      -0.531300
     26 C44          3.4210     3.0720     9.5510 cc         1 1GG       0.421200
     27 C45          2.8240     3.0070     8.2140 c          1 1GG       0.485200
     28 O46          1.6190     2.8870     8.0760 o          1 1GG      -0.711500
     29 N48          2.6220     2.9940    10.6840 nu         1 1GG      -0.375200
     30 C49          3.2300     3.0580    12.0150 cy         1 1GG       0.093500
     31 C50          2.9670     4.3830    12.7490 cy         1 1GG      -0.048900
     32 C51          1.6910     3.7310    13.3060 cy         1 1GG      -0.050400
     33 C52          2.3920     2.3770    13.1100 cy         1 1GG      -0.048900
     34 H2           1.9380    -0.0020    -0.9380 ha         1 1GG       0.100000
     35 H3           3.1660     0.0000     1.1970 ha         1 1GG       0.134500
     36 H5          -0.5280     0.0010     3.3440 ha         1 1GG       0.134500
     37 H6          -1.7740     0.0050     1.2190 ha         1 1GG       0.100000
     38 HN12         0.9050     0.0020    -2.4140 hn         1 1GG       0.381400
     39 HN13        -2.4540     0.8180    -0.8050 hn         1 1GG       0.222467
     40 HN1A        -2.4540    -0.8160    -0.8020 hn         1 1GG       0.222467
     41 H14          3.0950    -0.5130     3.5640 h1         1 1GG       0.043700
     42 H14A         1.5660    -0.5130     4.4540 h1         1 1GG       0.043700
     43 HN15         2.0450     2.1400     3.5730 hn         1 1GG       0.175500
     44 H20          2.4470     3.6640     5.4990 h1         1 1GG       0.053700
     45 H21          4.7180     3.0780     4.0490 hc         1 1GG       0.038200
     46 H21A         4.4520     4.6840     4.8500 hc         1 1GG       0.038200
     47 H28          7.5550     4.1370     6.6190 hc         1 1GG       0.034700
     48 H29          5.5780     1.1830     5.6120 hc         1 1GG       0.034700
     49 H30          7.2550     3.6990     4.0270 hc         1 1GG       0.012200
     50 H30A         8.2270     5.0660     4.5890 hc         1 1GG       0.012200
     51 H36          8.0710     2.4230     6.8290 hc         1 1GG       0.012200
     52 H36A         6.8580     1.4490     7.6710 hc         1 1GG       0.012200
     53 H49          4.2720     2.7640    12.0430 h1         1 1GG       0.070700
     54 H50          2.7630     5.2070    12.0760 hc         1 1GG       0.032450
     55 H50A         3.7030     4.5970    13.5150 hc         1 1GG       0.032450
     56 H51          1.5130     3.9700    14.3480 hc         1 1GG       0.026200
     57 H51A         0.8320     3.8610    12.6590 hc         1 1GG       0.026200
     58 H52          1.7320     1.6100    12.7230 hc         1 1GG       0.032450
     59 H52A         2.9800     2.0760    13.9690 hc         1 1GG       0.032450
     60 H27          6.2750     5.3300     6.3550 hc         1 1GG       0.034700
     61 H281         6.8300     2.0240     4.6880 hc         1 1GG       0.034700
     62 H291         6.5650     5.3280     4.0420 hc         1 1GG       0.012200
     63 H301         7.8930     0.7050     6.4440 hc         1 1GG       0.012200
     64 H31          1.6340     2.8600    10.5910 hn         1 1GG       0.307800
     65 H133        -2.4580    -0.0010    -2.2190 hn         1 1GG       0.222467
@<TRIPOS>BOND
     1     1     2 ar  
     2     1     7 ar  
     3     1     8 1   
     4     2     3 ar  
     5     2    34 1   
     6     3     4 ar  
     7     3    35 1   
     8     4     6 ar  
     9     4    11 1   
    10     5    24 1   
    11     6     7 ar  
    12     6    36 1   
    13     7    37 1   
    14     8     9 2   
    15     8    10 1   
    16     9    38 1   
    17    10    39 1   
    18    10    40 1   
    19    10    65 1   
    20    11    12 1   
    21    11    41 1   
    22    11    42 1   
    23    12    13 1   
    24    12    43 1   
    25    13    14 2   
    26    13    15 1   
    27    15    16 1   
    28    15    19 1   
    29    15    44 1   
    30    16    17 1   
    31    16    45 1   
    32    16    46 1   
    33    17    18 1   
    34    17    20 1   
    35    17    21 1   
    36    18    19 1   
    37    18    24 2   
    38    19    27 1   
    39    20    22 1   
    40    20    47 1   
    41    20    60 1   
    42    21    23 1   
    43    21    48 1   
    44    21    61 1   
    45    22    49 1   
    46    22    50 1   
    47    22    62 1   
    48    23    51 1   
    49    23    52 1   
    50    23    63 1   
    51    24    25 1   
    52    25    26 2   
    53    26    27 1   
    54    26    29 1   
    55    27    28 2   
    56    29    30 1   
    57    29    64 1   
    58    30    31 1   
    59    30    33 1   
    60    30    53 1   
    61    31    32 1   
    62    31    54 1   
    63    31    55 1   
    64    32    33 1   
    65    32    56 1   
    66    32    57 1   
    67    33    58 1   
    68    33    59 1   
@<TRIPOS>SUBSTRUCTURE
     1 1GG         1 TEMP              0 ****  ****    0 ROOT
