@<TRIPOS>MOLECULE
1GG
   67    70     1     0     0
SMALL
bcc


@<TRIPOS>ATOM
      1 C1          -0.6940     1.0370    -0.0030 ca         1 1GG      -0.155900
      2 C2           0.2830     0.4580    -0.8210 ca         1 1GG      -0.077500
      3 C3           1.4270    -0.0970    -0.2440 ca         1 1GG      -0.089000
      4 C4           1.5940    -0.0820     1.1450 ca         1 1GG      -0.138300
      5 Cl4          7.4560    -7.3100     4.3770 cl         1 1GG       0.080600
      6 C5           0.6080     0.4930     1.9580 ca         1 1GG      -0.089000
      7 C6          -0.5370     1.0510     1.3880 ca         1 1GG      -0.077500
      8 C11         -1.9440     1.5600    -0.6250 ce         1 1GG       0.598800
      9 N12         -2.7690     0.8100    -1.2220 n2         1 1GG      -0.647100
     10 N13         -2.0660     3.0680    -0.4480 nz         1 1GG      -0.879600
     11 C14          2.8620    -0.5830     1.7580 c3         1 1GG       0.160100
     12 N15          2.8140    -2.0470     2.0910 ny         1 1GG      -0.679800
     13 C18          3.8830    -2.4690     3.0720 c          1 1GG       0.522100
     14 O19          4.7300    -1.6500     3.3780 o          1 1GG      -0.359100
     15 C20          3.7790    -3.9120     3.5890 c3         1 1GG       0.041700
     16 C21          4.1360    -3.9700     5.0990 c3         1 1GG      -0.096400
     17 C22          5.2360    -5.0560     5.2560 c3         1 1GG      -0.007800
     18 C23          5.5340    -5.4900     3.8300 cc         1 1GG       0.120400
     19 N24          4.7280    -4.7980     2.9210 n          1 1GG      -0.320000
     20 C28          4.7120    -6.2270     6.0940 c3         1 1GG      -0.088400
     21 C29          6.4730    -4.4690     5.9400 c3         1 1GG      -0.088400
     22 C30          3.5730    -6.9830     5.4650 c3         1 1GG      -0.107600
     23 C36          7.2110    -3.4450     5.1210 c3         1 1GG      -0.107600
     24 C42          6.4340    -6.4510     3.3400 cd         1 1GG       0.125000
     25 N43          6.5190    -6.7430     1.9990 nd         1 1GG      -0.401300
     26 C44          5.7480    -6.0820     1.1440 cc         1 1GG       0.354200
     27 C45          4.7850    -5.0220     1.5450 c          1 1GG       0.599200
     28 O46          4.0780    -4.3500     0.7580 o          1 1GG      -0.696500
     29 N48          5.7940    -6.4070    -0.2920 ny         1 1GG      -0.677000
     30 C49          7.1730    -6.4820    -0.8690 cy         1 1GG       0.072500
     31 C50          7.2120    -6.8390    -2.3900 cy         1 1GG      -0.097400
     32 C51          7.9530    -5.5180    -2.6710 cy         1 1GG      -0.085400
     33 C52          7.8700    -5.1260    -1.1820 cy         1 1GG      -0.097400
     34 H2           0.1540     0.4270    -1.9170 ha         1 1GG       0.174000
     35 H3           2.2010    -0.5320    -0.8990 ha         1 1GG       0.165500
     36 H5           0.7310     0.5250     3.0540 ha         1 1GG       0.165500
     37 H6          -1.3130     1.4770     2.0450 ha         1 1GG       0.174000
     38 HN12        -3.6160     1.1150    -1.6540 hn         1 1GG       0.488400
     39 HN13        -1.3760     3.5350    -1.0470 hn         1 1GG       0.469800
     40 HN1A        -3.0010     3.4140    -0.6930 hn         1 1GG       0.469800
     41 H14          3.0790    -0.0170     2.7150 hx         1 1GG       0.129200
     42 H14A         3.7350    -0.4230     1.0580 hx         1 1GG       0.129200
     43 HN15         2.9430    -2.6090     1.2310 hn         1 1GG       0.476800
     44 H20          2.7340    -4.3110     3.4160 h1         1 1GG       0.112700
     45 H21          4.5130    -2.9810     5.4640 hc         1 1GG       0.110200
     46 H21A         3.2230    -4.2420     5.6880 hc         1 1GG       0.110200
     47 H28          4.3910    -5.8120     7.0890 hc         1 1GG       0.087950
     48 H29          6.1360    -4.0110     6.9100 hc         1 1GG       0.087950
     49 H30          2.7040    -6.3150     5.2490 hc         1 1GG       0.048033
     50 H30A         3.8900    -7.4720     4.5130 hc         1 1GG       0.048033
     51 H36          6.5500    -2.5930     4.8280 hc         1 1GG       0.048033
     52 H36A         8.0620    -3.0320     5.7200 hc         1 1GG       0.048033
     53 H49          7.7920    -7.1740    -0.2380 hx         1 1GG       0.144700
     54 H50          7.8110    -7.7570    -2.5890 hc         1 1GG       0.087950
     55 H50A         6.2240    -6.9260    -2.8920 hc         1 1GG       0.087950
     56 H51          7.4110    -4.8290    -3.3560 hc         1 1GG       0.093700
     57 H51A         8.9930    -5.6580    -3.0420 hc         1 1GG       0.093700
     58 H52          8.8570    -5.0300    -0.6760 hc         1 1GG       0.087950
     59 H52A         7.2600    -4.2190    -0.9840 hc         1 1GG       0.087950
     60 H27          5.5600    -6.9370     6.2980 hc         1 1GG       0.087950
     61 H281         7.1750    -5.3070     6.2050 hc         1 1GG       0.087950
     62 H291         3.2260    -7.7850     6.1660 hc         1 1GG       0.048033
     63 H301         7.6330    -3.9020     4.1930 hc         1 1GG       0.048033
     64 H31          5.2540    -5.6850    -0.7940 hn         1 1GG       0.472300
     65 H133        -1.8710     3.3130     0.5290 hn         1 1GG       0.469800
     66 H152         1.8930    -2.2760     2.4840 hn         1 1GG       0.476800
     67 H482         5.3390    -7.3230    -0.4350 hn         1 1GG       0.472300
@<TRIPOS>BOND
     1     1     2 ar  
     2     1     7 ar  
     3     1     8 1   
     4     2     3 ar  
     5     2    34 1   
     6     3     4 ar  
     7     3    35 1   
     8     4     6 ar  
     9     4    11 1   
    10     5    24 1   
    11     6     7 ar  
    12     6    36 1   
    13     7    37 1   
    14     8     9 2   
    15     8    10 1   
    16     9    38 1   
    17    10    39 1   
    18    10    40 1   
    19    10    65 1   
    20    11    12 1   
    21    11    41 1   
    22    11    42 1   
    23    12    13 1   
    24    12    43 1   
    25    12    66 1   
    26    13    14 2   
    27    13    15 1   
    28    15    16 1   
    29    15    19 1   
    30    15    44 1   
    31    16    17 1   
    32    16    45 1   
    33    16    46 1   
    34    17    18 1   
    35    17    20 1   
    36    17    21 1   
    37    18    19 1   
    38    18    24 2   
    39    19    27 1   
    40    20    22 1   
    41    20    47 1   
    42    20    60 1   
    43    21    23 1   
    44    21    48 1   
    45    21    61 1   
    46    22    49 1   
    47    22    50 1   
    48    22    62 1   
    49    23    51 1   
    50    23    52 1   
    51    23    63 1   
    52    24    25 1   
    53    25    26 2   
    54    26    27 1   
    55    26    29 1   
    56    27    28 2   
    57    29    30 1   
    58    29    64 1   
    59    29    67 1   
    60    30    31 1   
    61    30    33 1   
    62    30    53 1   
    63    31    32 1   
    64    31    54 1   
    65    31    55 1   
    66    32    33 1   
    67    32    56 1   
    68    32    57 1   
    69    33    58 1   
    70    33    59 1   
@<TRIPOS>SUBSTRUCTURE
     1 1GG         1 TEMP              0 ****  ****    0 ROOT
