@<TRIPOS>MOLECULE
molecule
   65    68     1     0     0
SMALL
bcc


@<TRIPOS>ATOM
      1 C1           0.0000     0.0000     0.0000 ca         1 1GG      -0.194900
      2 C2           1.3950     0.0000     0.0000 ca         1 1GG      -0.086000
      3 C3           2.0830     0.0000     1.1960 ca         1 1GG      -0.101000
      4 C4           1.3920    -0.0000     2.3940 ca         1 1GG      -0.052300
      5 Cl4          7.2110     3.4570     8.7760 cl         1 1GG      -0.063400
      6 C5           0.0080    -0.0010     2.4020 ca         1 1GG      -0.101000
      7 C6          -0.6900     0.0050     1.2120 ca         1 1GG      -0.086000
      8 C11         -0.7440     0.0010    -1.2800 ce         1 1GG       0.542800
      9 N12         -0.0960     0.0010    -2.4090 n2         1 1GG      -0.680100
     10 N13         -2.1220     0.0000    -1.2760 nz         1 1GG      -0.801600
     11 C14          2.1490    -0.0020     3.6970 c3         1 1GG       0.152300
     12 N15          2.3950     1.3790     4.1200 ns         1 1GG      -0.593900
     13 C18          3.0610     1.6240     5.2660 c          1 1GG       0.652100
     14 O19          3.4560     0.7020     5.9470 o          1 1GG      -0.566100
     15 C20          3.3130     3.0450     5.7020 c3         1 1GG       0.042700
     16 C21          4.5520     3.6120     4.9770 c3         1 1GG      -0.079400
     17 C22          5.6820     3.2980     5.9820 c3         1 1GG      -0.006800
     18 C23          4.9810     3.2260     7.3260 cc         1 1GG      -0.056600
     19 N24          3.6390     3.0870     7.1350 n          1 1GG      -0.295000
     20 C28          6.7250     4.4170     5.9820 c3         1 1GG      -0.080900
     21 C29          6.3360     1.9560     5.6490 c3         1 1GG      -0.080900
     22 C30          7.2300     4.6440     4.5560 c3         1 1GG      -0.097600
     23 C36          7.3640     1.6080     6.7270 c3         1 1GG      -0.097600
     24 C42          5.4960     3.2810     8.5780 cd         1 1GG       0.212000
     25 N43          4.7260     3.2050     9.6620 nd         1 1GG      -0.631300
     26 C44          3.4210     3.0720     9.5510 cc         1 1GG       0.630200
     27 C45          2.8240     3.0070     8.2140 c          1 1GG       0.573200
     28 O46          1.6190     2.8870     8.0760 o          1 1GG      -0.651500
     29 N48          2.6220     2.9940    10.6840 nu         1 1GG      -0.822200
     30 C49          3.2300     3.0580    12.0150 cy         1 1GG       0.219500
     31 C50          2.9670     4.3830    12.7490 cy         1 1GG      -0.113900
     32 C51          1.6910     3.7310    13.3060 cy         1 1GG      -0.108400
     33 C52          2.3920     2.3770    13.1100 cy         1 1GG      -0.113900
     34 H2           1.9380    -0.0020    -0.9380 ha         1 1GG       0.140000
     35 H3           3.1660     0.0000     1.1970 ha         1 1GG       0.168000
     36 H5          -0.5280     0.0010     3.3440 ha         1 1GG       0.168000
     37 H6          -1.7740     0.0050     1.2190 ha         1 1GG       0.140000
     38 HN12        -0.5980     0.0020    -3.2750 hn         1 1GG       0.434400
     39 HN13        -2.4540    -0.8250    -0.8180 hn         1 1GG       0.465800
     40 HN1A        -2.4540     0.8090    -0.7890 hn         1 1GG       0.465800
     41 H14          1.5660    -0.5130     4.4540 h1         1 1GG       0.076200
     42 H14A         3.0950    -0.5130     3.5640 h1         1 1GG       0.076200
     43 HN15         2.0460     2.1400     3.5720 hn         1 1GG       0.315500
     44 H20          2.4470     3.6640     5.4990 h1         1 1GG       0.085700
     45 H21          4.7180     3.0780     4.0490 hc         1 1GG       0.070200
     46 H21A         4.4520     4.6840     4.8500 hc         1 1GG       0.070200
     47 H28          6.2750     5.3300     6.3550 hc         1 1GG       0.057450
     48 H29          5.5780     1.1830     5.6120 hc         1 1GG       0.057450
     49 H30          6.5730     5.3380     4.0470 hc         1 1GG       0.039867
     50 H30A         8.2320     5.0540     4.5890 hc         1 1GG       0.039867
     51 H36          8.0850     2.4120     6.8120 hc         1 1GG       0.039867
     52 H36A         7.8760     0.6920     6.4550 hc         1 1GG       0.039867
     53 H49          4.2720     2.7640    12.0430 h1         1 1GG       0.096700
     54 H50          2.7630     5.2070    12.0760 hc         1 1GG       0.063950
     55 H50A         3.7030     4.5970    13.5150 hc         1 1GG       0.063950
     56 H51          0.8320     3.8610    12.6590 hc         1 1GG       0.055200
     57 H51A         1.5130     3.9700    14.3480 hc         1 1GG       0.055200
     58 H52          2.9800     2.0760    13.9690 hc         1 1GG       0.063950
     59 H52A         1.7320     1.6100    12.7230 hc         1 1GG       0.063950
     60 H27          7.5550     4.1370     6.6190 hc         1 1GG       0.057450
     61 H281         6.8300     2.0230     4.6880 hc         1 1GG       0.057450
     62 H291         7.2420     3.7010     4.0230 hc         1 1GG       0.039867
     63 H301         6.8610     1.4720     7.6760 hc         1 1GG       0.039867
     64 H31          1.6310     2.8860    10.5910 hn         1 1GG       0.465800
     65 H133        -2.4580     0.0170    -2.2180 hn         1 1GG       0.465800
@<TRIPOS>BOND
     1     1     2 ar  
     2     1     8 1   
     3     2    34 1   
     4     3     2 ar  
     5     3    35 1   
     6     4     3 ar  
     7     5    24 1   
     8     6     4 ar  
     9     6     7 ar  
    10     6    36 1   
    11     7     1 ar  
    12     7    37 1   
    13     8    10 1   
    14     9     8 2   
    15     9    38 1   
    16    10    39 1   
    17    10    40 1   
    18    11     4 1   
    19    11    41 1   
    20    11    42 1   
    21    12    11 1   
    22    12    13 1   
    23    12    43 1   
    24    13    14 2   
    25    15    13 1   
    26    15    19 1   
    27    15    44 1   
    28    16    15 1   
    29    16    17 1   
    30    16    45 1   
    31    16    46 1   
    32    17    18 1   
    33    18    19 1   
    34    18    24 2   
    35    19    27 1   
    36    20    17 1   
    37    20    22 1   
    38    20    47 1   
    39    21    17 1   
    40    21    23 1   
    41    21    48 1   
    42    22    49 1   
    43    22    50 1   
    44    23    51 1   
    45    23    52 1   
    46    24    25 1   
    47    25    26 2   
    48    26    29 1   
    49    27    26 1   
    50    27    28 2   
    51    29    30 1   
    52    30    33 1   
    53    30    31 1   
    54    30    53 1   
    55    31    32 1   
    56    31    54 1   
    57    31    55 1   
    58    32    56 1   
    59    32    57 1   
    60    33    32 1   
    61    33    58 1   
    62    33    59 1   
    63    20    60 1   
    64    21    61 1   
    65    22    62 1   
    66    23    63 1   
    67    29    64 1   
    68    65    10 1   
@<TRIPOS>SUBSTRUCTURE
     1 1GG         1 TEMP              0 ****  ****    0 ROOT
