@<TRIPOS>MOLECULE
1GH
   52    56     1     0     0
SMALL
bcc


@<TRIPOS>ATOM
      1 O2         -0.1840   -0.8800    0.0350 o         1 1GH     -0.585500
      2 C13         1.0060   -0.5550    0.1150 c         1 1GH      0.769500
      3 N1          1.8480   -0.6500    1.3160 n         1 1GH     -0.276000
      4 C6          1.2890   -0.0920    2.5430 c3        1 1GH      0.039400
      5 C8          0.9110    1.3880    2.4920 ca        1 1GH      0.376600
      6 N2          0.7050    1.9910    1.2980 nb        1 1GH     -0.679000
      7 C12         0.3570    3.2910    1.3080 ca        1 1GH      0.408200
      8 C11         0.2010    4.0480    2.4820 ca        1 1GH     -0.242300
      9 C10         0.4210    3.4190    3.7080 ca        1 1GH     -0.085000
     10 C9          0.7820    2.0710    3.7210 ca        1 1GH     -0.237300
     11 C7          0.0700   -0.8830    3.0270 c3        1 1GH     -0.100100
     12 N3          1.8200   -0.1800   -1.0130 n         1 1GH     -0.401100
     13 C14         3.0990    0.1050   -0.4990 ca        1 1GH     -0.123700
     14 C5          3.1430   -0.2160    0.8890 ca        1 1GH     -0.023400
     15 C15         4.2710    0.5810   -1.1500 ca        1 1GH      0.418200
     16 N4          5.4190    0.7160   -0.5100 nb        1 1GH     -0.641000
     17 C16         5.5000    0.3450    0.8170 ca        1 1GH      0.357600
     18 C4          4.3890   -0.1680    1.5670 ca        1 1GH     -0.063300
     19 C3          4.5940   -0.6250    2.8910 ca        1 1GH     -0.216000
     20 C17         6.7650    0.4640    1.4800 ca        1 1GH     -0.123300
     21 C18         6.9450    0.0600    2.7830 ca        1 1GH     -0.017000
     22 C2          5.8330   -0.5130    3.4880 ca        1 1GH      0.150100
     23 O1          6.1110   -0.9300    4.7730 os        1 1GH     -0.315900
     24 C1          5.0260   -1.4860    5.5090 c3        1 1GH      0.108700
     25 C19         8.2340    0.2150    3.4160 cc        1 1GH     -0.273600
     26 C22         8.9170    1.3880    3.6980 cd        1 1GH      0.284000
     27 C23         8.6570    2.8150    3.5210 c3        1 1GH     -0.141400
     28 O3         10.1430    1.0340    4.3060 os        1 1GH     -0.121100
     29 N5         10.2400   -0.2790    4.4050 nd        1 1GH     -0.370300
     30 C20         9.1320   -0.8500    3.8920 cc        1 1GH      0.354600
     31 C21         8.8540   -2.2950    3.8050 c3        1 1GH     -0.135400
     32 H3          1.4230    0.3750   -1.7340 hn        1 1GH      0.330500
     33 H6          2.1000   -0.1780    3.3290 h1        1 1GH      0.072700
     34 H71C       -0.2750   -0.4480    3.9960 hc        1 1GH      0.059367
     35 H72C        0.3390   -1.9550    3.1830 hc        1 1GH      0.059367
     36 H73C       -0.7640   -0.8290    2.2840 hc        1 1GH      0.059367
     37 H9          0.9630    1.5450    4.6680 ha        1 1GH      0.143000
     38 H12         0.1940    3.7460    0.3140 h4        1 1GH      0.024100
     39 H11        -0.0860    5.1060    2.4280 ha        1 1GH      0.148000
     40 H10         0.3130    3.9740    4.6510 ha        1 1GH      0.142000
     41 H15         4.2560    0.8570   -2.2190 h4        1 1GH      0.033100
     42 H17         7.6160    0.8860    0.9170 ha        1 1GH      0.160000
     43 HA          3.7630   -1.1130    3.4190 ha        1 1GH      0.146000
     44 H11C        4.2000   -0.7430    5.6180 h1        1 1GH      0.048033
     45 H12C        4.6550   -2.4200    5.0190 h1        1 1GH      0.048033
     46 H13C        5.4840   -1.7170    6.5050 h1        1 1GH      0.048033
     47 H231        8.2040    3.2380    4.4540 hc        1 1GH      0.066700
     48 H232        7.9450    2.9680    2.6720 hc        1 1GH      0.066700
     49 H233        9.6080    3.3660    3.3100 hc        1 1GH      0.066700
     50 H211        8.9010   -2.6210    2.7350 hc        1 1GH      0.061033
     51 H212        9.5870   -2.8970    4.3940 hc        1 1GH      0.061033
     52 H213        7.8230   -2.4920    4.1960 hc        1 1GH      0.061033
@<TRIPOS>BOND
     1    1    2 2   
     2    2    3 1   
     3    2   12 1   
     4    3    4 1   
     5    3   14 1   
     6    4    5 1   
     7    4   11 1   
     8    4   33 1   
     9    5    6 ar  
    10    5   10 ar  
    11    6    7 ar  
    12    7    8 ar  
    13    7   38 1   
    14    8    9 ar  
    15    8   39 1   
    16    9   10 ar  
    17    9   40 1   
    18   10   37 1   
    19   11   34 1   
    20   11   35 1   
    21   11   36 1   
    22   12   13 1   
    23   12   32 1   
    24   13   14 ar  
    25   13   15 ar  
    26   14   18 ar  
    27   15   16 ar  
    28   15   41 1   
    29   16   17 ar  
    30   17   18 ar  
    31   17   20 ar  
    32   18   19 ar  
    33   19   22 ar  
    34   19   43 1   
    35   20   21 ar  
    36   20   42 1   
    37   21   22 ar  
    38   21   25 1   
    39   22   23 1   
    40   23   24 1   
    41   24   44 1   
    42   24   45 1   
    43   24   46 1   
    44   25   26 2   
    45   25   30 1   
    46   26   27 1   
    47   26   28 1   
    48   27   47 1   
    49   27   48 1   
    50   27   49 1   
    51   28   29 1   
    52   29   30 2   
    53   30   31 1   
    54   31   50 1   
    55   31   51 1   
    56   31   52 1   
@<TRIPOS>SUBSTRUCTURE
     1 1GH         1 TEMP              0 ****  ****    0 ROOT
