@<TRIPOS>MOLECULE
1GJ
   43    46     1     0     0
SMALL
bcc


@<TRIPOS>ATOM
      1 O01        -0.1550    0.4070    0.1060 oh        1 1GJ     -0.491100
      2 C02         1.2160    0.3360    0.1080 ca        1 1GJ      0.179100
      3 C03         1.9550   -0.0060    1.2520 ca        1 1GJ     -0.255000
      4 C04         3.3420   -0.0570    1.1740 ca        1 1GJ     -0.039000
      5 C05         4.0150    0.2240   -0.0220 ca        1 1GJ     -0.119800
      6 C06         5.4650    0.1970   -0.0600 cc        1 1GJ     -0.016300
      7 C07         6.3800    1.2840   -0.0310 ca        1 1GJ     -0.122000
      8 C08         6.2720    2.6870    0.0170 ca        1 1GJ     -0.032000
      9 C09         7.4210    3.4380    0.0370 ca        1 1GJ     -0.172000
     10 C10         8.7090    2.8330    0.0120 ca        1 1GJ     -0.052000
     11 C11         8.8610    1.4700   -0.0340 ca        1 1GJ     -0.142300
     12 C12        10.2320    0.8140   -0.0600 c3        1 1GJ      0.697200
     13 F13        11.2890    1.6950   -0.0410 f         1 1GJ     -0.238967
     14 F14        10.4850   -0.0200    1.0020 f         1 1GJ     -0.238967
     15 F15        10.4750    0.0370   -1.1660 f         1 1GJ     -0.238967
     16 C16         7.6990    0.6490   -0.0590 ca        1 1GJ     -0.053000
     17 N17         7.5620   -0.7170   -0.1010 nc        1 1GJ     -0.264400
     18 N18         6.2480   -0.9640   -0.0960 na        1 1GJ      0.179800
     19 C19         5.7080   -2.3220   -0.1440 c3        1 1GJ      0.093600
     20 C20         5.7970   -2.9770   -1.4890 ca        1 1GJ     -0.119300
     21 C21         7.0420   -3.3010   -2.0380 ca        1 1GJ     -0.102000
     22 C22         7.1100   -3.9490   -3.2720 ca        1 1GJ     -0.134500
     23 C23         5.9410   -4.2780   -3.9570 ca        1 1GJ     -0.116000
     24 C24         4.6990   -3.9560   -3.4090 ca        1 1GJ     -0.134500
     25 C25         4.6250   -3.3040   -2.1800 ca        1 1GJ     -0.102000
     26 C26         3.2530    0.5630   -1.1620 ca        1 1GJ      0.192100
     27 O27         3.9340    0.8280   -2.3220 oh        1 1GJ     -0.474100
     28 C28         1.8530    0.6220   -1.1060 ca        1 1GJ     -0.258000
     29 H1         -0.4680    0.2040    1.0010 ho        1 1GJ      0.427000
     30 H2          1.4430   -0.2260    2.1980 ha        1 1GJ      0.142000
     31 H3          3.9280   -0.3170    2.0700 ha        1 1GJ      0.147000
     32 H4          5.2770    3.1560    0.0330 ha        1 1GJ      0.139000
     33 H5          7.3680    4.5370    0.0730 ha        1 1GJ      0.138000
     34 H6          9.5960    3.4860    0.0300 ha        1 1GJ      0.148000
     35 H7          6.2760   -2.9500    0.6040 h1        1 1GJ      0.078700
     36 H8          4.6310   -2.2520    0.1850 h1        1 1GJ      0.078700
     37 H9          7.9680   -3.0410   -1.5020 ha        1 1GJ      0.143500
     38 H10         8.0910   -4.1970   -3.7040 ha        1 1GJ      0.135000
     39 H11         5.9980   -4.7890   -4.9290 ha        1 1GJ      0.133000
     40 H12         3.7760   -4.2140   -3.9480 ha        1 1GJ      0.135000
     41 H13         3.6430   -3.0470   -1.7550 ha        1 1GJ      0.143500
     42 H14         3.2870    1.0360   -3.0130 ho        1 1GJ      0.426000
     43 H15         1.2580    0.8860   -1.9900 ha        1 1GJ      0.158000
@<TRIPOS>BOND
     1    1    2 1   
     2    1   29 1   
     3    2    3 ar  
     4    2   28 ar  
     5    3    4 ar  
     6    3   30 1   
     7    4    5 ar  
     8    4   31 1   
     9    5    6 1   
    10    5   26 ar  
    11    6    7 2   
    12    6   18 1   
    13    7    8 ar  
    14    7   16 ar  
    15    8    9 ar  
    16    8   32 1   
    17    9   10 ar  
    18    9   33 1   
    19   10   11 ar  
    20   10   34 1   
    21   11   12 1   
    22   11   16 ar  
    23   12   13 1   
    24   12   14 1   
    25   12   15 1   
    26   16   17 2   
    27   17   18 1   
    28   18   19 1   
    29   19   20 1   
    30   19   35 1   
    31   19   36 1   
    32   20   21 ar  
    33   20   25 ar  
    34   21   22 ar  
    35   21   37 1   
    36   22   23 ar  
    37   22   38 1   
    38   23   24 ar  
    39   23   39 1   
    40   24   25 ar  
    41   24   40 1   
    42   25   41 1   
    43   26   27 1   
    44   26   28 ar  
    45   27   42 1   
    46   28   43 1   
@<TRIPOS>SUBSTRUCTURE
     1 1GJ         1 TEMP              0 ****  ****    0 ROOT
