@<TRIPOS>MOLECULE
1GJ
   43    46     1     0     0
SMALL
bcc


@<TRIPOS>ATOM
      1 O01          0.1840    -0.4090     0.2800 oh         1 1GJ      -0.487100
      2 C02          1.5440    -0.3300     0.1120 ca         1 1GJ       0.177100
      3 C03          2.2970     0.0200     1.2470 ca         1 1GJ      -0.192000
      4 C04          3.6770     0.1110     1.1390 ca         1 1GJ      -0.042000
      5 C05          4.3380    -0.1350    -0.0760 ca         1 1GJ      -0.108800
      6 C06          5.7870    -0.0880    -0.1060 cc         1 1GJ      -0.028300
      7 C07          6.6920    -0.8720     0.6630 ca         1 1GJ      -0.131000
      8 C08          6.5680    -1.9060     1.6110 ca         1 1GJ      -0.041000
      9 C09          7.7080    -2.4440     2.1550 ca         1 1GJ      -0.168000
     10 C10          9.0010    -1.9800     1.7840 ca         1 1GJ      -0.057000
     11 C11          9.1680    -0.9760     0.8640 ca         1 1GJ      -0.137300
     12 C12         10.5460    -0.4740     0.4630 c3         1 1GJ       0.697200
     13 F13         10.7570     0.8630     0.6980 f          1 1GJ      -0.237633
     14 F14         10.8500    -0.6380    -0.8660 f          1 1GJ      -0.237633
     15 F15         11.5910    -1.0890     1.1150 f          1 1GJ      -0.237633
     16 C16          8.0150    -0.3910     0.2700 ca         1 1GJ      -0.056000
     17 N17          7.8910     0.6100    -0.6640 nc         1 1GJ      -0.253400
     18 N18          6.5820     0.7710    -0.8730 na         1 1GJ       0.191800
     19 C19          6.0580     1.7860    -1.7880 c3         1 1GJ       0.097600
     20 C20          6.7720     1.8580    -3.1020 ca         1 1GJ      -0.111300
     21 C21          7.9370     2.6220    -3.2290 ca         1 1GJ      -0.095000
     22 C22          8.5750     2.7170    -4.4650 ca         1 1GJ      -0.136500
     23 C23          8.0560     2.0490    -5.5740 ca         1 1GJ      -0.113000
     24 C24          6.9010     1.2770    -5.4460 ca         1 1GJ      -0.136500
     25 C25          6.2610     1.1770    -4.2110 ca         1 1GJ      -0.095000
     26 C26          3.5610    -0.4750    -1.2020 ca         1 1GJ       0.180100
     27 O27          4.2200    -0.6800    -2.3900 oh         1 1GJ      -0.492100
     28 C28          2.1650    -0.5790    -1.1170 ca         1 1GJ      -0.306000
     29 H1          -0.2130    -0.6610    -0.5670 ho         1 1GJ       0.424000
     30 H2           1.7840     0.2130     2.2000 ha         1 1GJ       0.160000
     31 H3           4.2770     0.3770     2.0260 ha         1 1GJ       0.152000
     32 H4           5.5680    -2.2650     1.8960 ha         1 1GJ       0.138000
     33 H5           7.6430    -3.2540     2.8970 ha         1 1GJ       0.138000
     34 H6           9.8810    -2.4480     2.2560 ha         1 1GJ       0.149000
     35 H7           6.1340     2.7840    -1.2640 h1         1 1GJ       0.075200
     36 H8           4.9690     1.5430    -1.9570 h1         1 1GJ       0.075200
     37 H9           8.3570     3.1320    -2.3480 ha         1 1GJ       0.140000
     38 H10          9.4930     3.3150    -4.5620 ha         1 1GJ       0.134000
     39 H11          8.5610     2.1250    -6.5480 ha         1 1GJ       0.132000
     40 H12          6.4980     0.7410    -6.3170 ha         1 1GJ       0.134000
     41 H13          5.3600     0.5530    -4.1010 ha         1 1GJ       0.140000
     42 H14          3.5900    -1.0540    -3.0250 ho         1 1GJ       0.425000
     43 H15          1.5740    -0.8540    -2.0000 ha         1 1GJ       0.141000
@<TRIPOS>BOND
     1     1     2 1   
     2     1    29 1   
     3     2     3 ar  
     4     2    28 ar  
     5     3     4 ar  
     6     3    30 1   
     7     4     5 ar  
     8     4    31 1   
     9     5     6 1   
    10     5    26 ar  
    11     6     7 2   
    12     6    18 1   
    13     7     8 ar  
    14     7    16 ar  
    15     8     9 ar  
    16     8    32 1   
    17     9    10 ar  
    18     9    33 1   
    19    10    11 ar  
    20    10    34 1   
    21    11    12 1   
    22    11    16 ar  
    23    12    13 1   
    24    12    14 1   
    25    12    15 1   
    26    16    17 2   
    27    17    18 1   
    28    18    19 1   
    29    19    20 1   
    30    19    35 1   
    31    19    36 1   
    32    20    21 ar  
    33    20    25 ar  
    34    21    22 ar  
    35    21    37 1   
    36    22    23 ar  
    37    22    38 1   
    38    23    24 ar  
    39    23    39 1   
    40    24    25 ar  
    41    24    40 1   
    42    25    41 1   
    43    26    27 1   
    44    26    28 ar  
    45    27    42 1   
    46    28    43 1   
@<TRIPOS>SUBSTRUCTURE
     1 1GJ         1 TEMP              0 ****  ****    0 ROOT
