@<TRIPOS>MOLECULE
molecule
   43    46     1     0     0
SMALL
bcc


@<TRIPOS>ATOM
      1 O01          0.0000     0.0000     0.0000 oh         1 1GJ      -0.518100
      2 C02          1.3580     0.0000     0.0000 ca         1 1GJ       0.143100
      3 C03          2.0500     0.0000     1.2050 ca         1 1GJ      -0.179000
      4 C04          3.4280     0.0010     1.2130 ca         1 1GJ      -0.072000
      5 C05          4.1330     0.0000     0.0060 ca         1 1GJ      -0.089800
      6 C06          5.6080     0.0000     0.0110 cc         1 1GJ       0.017700
      7 C07          6.4330     1.1270     0.0180 ca         1 1GJ      -0.187000
      8 C08          6.2140     2.5150     0.0230 ca         1 1GJ      -0.023000
      9 C09          7.2770     3.3620     0.0300 ca         1 1GJ      -0.187000
     10 C10          8.5900     2.8900     0.0310 ca         1 1GJ      -0.036000
     11 C11          8.8720     1.5620     0.0260 ca         1 1GJ      -0.168300
     12 C12         10.3030     1.0910     0.0280 c3         1 1GJ       0.680200
     13 F13         11.1590     2.1970     0.0350 f          1 1GJ      -0.223967
     14 F14         10.5360     0.3130     1.1680 f          1 1GJ      -0.223967
     15 F15         10.5430     0.3230    -1.1170 f          1 1GJ      -0.223967
     16 C16          7.8150     0.6250     0.0190 ca         1 1GJ      -0.010000
     17 N17          7.7480    -0.6940     0.0130 nc         1 1GJ      -0.261400
     18 N18          6.4050    -1.0880     0.0140 na         1 1GJ       0.163800
     19 C19          5.9360    -2.4760     0.0140 c3         1 1GJ       0.113600
     20 C20          5.7780    -2.9540    -1.4060 ca         1 1GJ      -0.129300
     21 C21          6.8400    -3.5570    -2.0550 ca         1 1GJ      -0.092000
     22 C22          6.6960    -3.9940    -3.3580 ca         1 1GJ      -0.131000
     23 C23          5.4890    -3.8300    -4.0130 ca         1 1GJ      -0.114000
     24 C24          4.4270    -3.2270    -3.3640 ca         1 1GJ      -0.131000
     25 C25          4.5700    -2.7940    -2.0590 ca         1 1GJ      -0.092000
     26 C26          3.4320    -0.0010    -1.2090 ca         1 1GJ       0.152100
     27 O27          4.1100    -0.0020    -2.3850 oh         1 1GJ      -0.496100
     28 C28          2.0490    -0.0070    -1.2040 ca         1 1GJ      -0.216000
     29 H1          -0.3140     0.8850     0.0850 ho         1 1GJ       0.426000
     30 H2           1.5050     0.0010     2.1410 ha         1 1GJ       0.149000
     31 H3           3.9650     0.0010     2.1540 ha         1 1GJ       0.150000
     32 H4           5.2050     2.9080     0.0230 ha         1 1GJ       0.128000
     33 H5           7.1000     4.4310     0.0330 ha         1 1GJ       0.134000
     34 H6           9.4070     3.6020     0.0360 ha         1 1GJ       0.147000
     35 H7           4.9820    -2.5340     0.5230 h1         1 1GJ       0.077200
     36 H8           6.6570    -3.1010     0.5270 h1         1 1GJ       0.077200
     37 H9           7.7850    -3.6860    -1.5420 ha         1 1GJ       0.137000
     38 H10          7.5280    -4.4670    -3.8660 ha         1 1GJ       0.131500
     39 H11          5.3760    -4.1710    -5.0350 ha         1 1GJ       0.130000
     40 H12          3.4810    -3.1000    -3.8760 ha         1 1GJ       0.131500
     41 H13          3.7380    -2.3220    -1.5510 ha         1 1GJ       0.137000
     42 H14          3.8600     0.7530    -2.8920 ho         1 1GJ       0.427000
     43 H15          1.5040    -0.0080    -2.1400 ha         1 1GJ       0.154000
@<TRIPOS>BOND
     1     1     2 1   
     2     2    28 ar  
     3     2     3 ar  
     4    28    26 ar  
     5     3     4 ar  
     6    26    27 1   
     7    26     5 ar  
     8     4     5 ar  
     9     5     6 1   
    10     6    18 1   
    11     6     7 2   
    12    25    24 ar  
    13    25    20 ar  
    14    24    23 ar  
    15    19    20 1   
    16    19    18 1   
    17    20    21 ar  
    18    23    22 ar  
    19    21    22 ar  
    20     8     7 ar  
    21     8     9 ar  
    22    18    17 1   
    23     7    16 ar  
    24     9    10 ar  
    25    17    16 2   
    26    16    11 ar  
    27    10    11 ar  
    28    11    12 1   
    29    14    12 1   
    30    12    13 1   
    31    12    15 1   
    32     1    29 1   
    33     3    30 1   
    34     4    31 1   
    35     8    32 1   
    36     9    33 1   
    37    10    34 1   
    38    19    35 1   
    39    19    36 1   
    40    21    37 1   
    41    22    38 1   
    42    23    39 1   
    43    24    40 1   
    44    25    41 1   
    45    27    42 1   
    46    28    43 1   
@<TRIPOS>SUBSTRUCTURE
     1 1GJ         1 TEMP              0 ****  ****    0 ROOT
