@<TRIPOS>MOLECULE
1GK
   40    42     1     0     0
SMALL
bcc


@<TRIPOS>ATOM
      1 C1          0.4070   -1.5860    0.3340 c3        1 1GK     -0.070800
      2 C2          1.6070   -0.7290    0.1980 ca        1 1GK     -0.011300
      3 C3          2.5480   -0.6720    1.2350 ca        1 1GK     -0.133000
      4 C4          3.7000    0.0980    1.1100 ca        1 1GK     -0.091000
      5 C5          3.9290    0.8310   -0.0560 ca        1 1GK     -0.142000
      6 C6          2.9960    0.7980   -1.0870 ca        1 1GK     -0.113000
      7 C7          1.8320    0.0260   -0.9670 ca        1 1GK     -0.184600
      8 C8          0.8710   -0.0210   -2.0870 c         1 1GK      0.617300
      9 O9          0.3950   -1.0700   -2.5340 o         1 1GK     -0.499100
     10 C10         0.4760    1.2690   -2.6690 cc        1 1GK     -0.248600
     11 C11         0.7300    2.5640   -2.1500 cd        1 1GK      0.011700
     12 N12         0.1640    3.5040   -2.9770 na        1 1GK     -0.170100
     13 C13        -0.4700    2.8340   -4.0490 cd        1 1GK     -0.309900
     14 C14        -0.2810    1.4340   -3.8620 cc        1 1GK      0.045000
     15 C15        -1.1900    3.3940   -5.1510 c         1 1GK      0.596700
     16 O16        -1.7190    2.7980   -6.0820 o         1 1GK     -0.437100
     17 N17        -1.3160    4.9120   -5.1810 n4        1 1GK     -0.684800
     18 C18        -2.1880    5.4040   -6.3020 c3        1 1GK      0.114500
     19 C19        -2.2610    6.8700   -6.3040 cc        1 1GK      0.099000
     20 C20        -2.0130    7.8430   -7.2550 cd        1 1GK     -0.140300
     21 C21        -2.3970    9.1040   -6.6660 cd        1 1GK     -0.262300
     22 C22        -2.8500    8.8270   -5.3890 cc        1 1GK      0.306600
     23 O23        -2.7810    7.4600   -5.1350 os        1 1GK     -0.388800
     24 H1         -0.5170   -1.0250    0.0460 hc        1 1GK      0.060367
     25 H1A         0.2880   -1.9570    1.3810 hc        1 1GK      0.060367
     26 H1B         0.4970   -2.4690   -0.3510 hc        1 1GK      0.060367
     27 H3          2.3760   -1.2560    2.1530 ha        1 1GK      0.150000
     28 H4          4.4370    0.1230    1.9290 ha        1 1GK      0.148000
     29 H5          4.8490    1.4250   -0.1630 ha        1 1GK      0.143000
     30 H6          3.1860    1.3570   -2.0160 ha        1 1GK      0.126000
     31 H11         1.2820    2.8390   -1.2400 h4        1 1GK      0.213000
     32 H14        -0.6520    0.6400   -4.5160 ha        1 1GK      0.209000
     33 HN17       -0.3820    5.3220   -5.2800 hn        1 1GK      0.453800
     34 H18        -1.7650    5.0270   -7.2790 hx        1 1GK      0.129200
     35 H18A       -3.2120    4.9470   -6.1530 hx        1 1GK      0.129200
     36 H20        -1.6170    7.7070   -8.2610 ha        1 1GK      0.185000
     37 H21        -2.3380   10.0760   -7.1530 ha        1 1GK      0.193000
     38 H22        -3.2400    9.4190   -4.5610 h4        1 1GK      0.079100
     39 HN12        0.1930    4.4800   -2.8350 hn        1 1GK      0.302700
     40 H172       -1.7190    5.2390   -4.2960 hn        1 1GK      0.453800
@<TRIPOS>BOND
     1    1    2 1
     2    1   24 1
     3    1   25 1
     4    1   26 1
     5    2    3 ar
     6    2    7 ar
     7    3    4 ar
     8    3   27 1
     9    4    5 ar
    10    4   28 1
    11    5    6 ar
    12    5   29 1
    13    6    7 ar
    14    6   30 1
    15    7    8 1
    16    8    9 2
    17    8   10 1
    18   10   11 2
    19   10   14 1
    20   11   12 1
    21   11   31 1
    22   12   13 1
    23   12   39 1
    24   13   14 2
    25   13   15 1
    26   14   32 1
    27   15   16 2
    28   15   17 1
    29   17   18 1
    30   17   33 1
    31   17   40 1
    32   18   19 1
    33   18   34 1
    34   18   35 1
    35   19   20 2
    36   19   23 1
    37   20   21 1
    38   20   36 1
    39   21   22 2
    40   21   37 1
    41   22   23 1
    42   22   38 1
@<TRIPOS>SUBSTRUCTURE
     1 1GK         1 TEMP              0 ****  ****    0 ROOT
