@<TRIPOS>MOLECULE
1GM
   36    38     1     0     0
SMALL
bcc


@<TRIPOS>ATOM
      1 C01         -0.0630    -0.0220    -0.0220 c3         1 1GM      -0.110100
      2 C02          1.4540     0.0370     0.0240 c3         1 1GM       0.050300
      3 N01          2.0160    -0.0340     1.3710 na         1 1GM       0.189800
      4 N02          1.8360    -1.1020     2.1540 nc         1 1GM      -0.260400
      5 C03          2.5010    -0.8410     3.3280 ca         1 1GM      -0.054000
      6 C04          2.6510    -1.6190     4.5090 ca         1 1GM      -0.138300
      7 C05          2.0050    -2.9930     4.5790 c3         1 1GM       0.697200
      8 F01          0.6390    -2.9900     4.4400 f          1 1GM      -0.237967
      9 F02          2.4420    -3.8790     3.6250 f          1 1GM      -0.237967
     10 F03          2.2110    -3.6620     5.7650 f          1 1GM      -0.237967
     11 C06          3.3780    -1.1040     5.5530 ca         1 1GM      -0.056000
     12 C07          3.9800     0.1830     5.4790 ca         1 1GM      -0.169000
     13 C08          3.8630     0.9680     4.3590 ca         1 1GM      -0.041000
     14 C09          3.1280     0.4790     3.2620 ca         1 1GM      -0.134000
     15 C10          2.7800     0.9720     1.9720 cc         1 1GM      -0.024300
     16 C11          3.1570     2.2410     1.3840 ca         1 1GM      -0.108800
     17 C12          4.5150     2.5790     1.3010 ca         1 1GM      -0.035000
     18 C13          4.9260     3.8060     0.7950 ca         1 1GM      -0.250000
     19 C14          3.9610     4.7290     0.3610 ca         1 1GM       0.177100
     20 O01          4.2890     5.9610    -0.1480 oh         1 1GM      -0.490100
     21 C15          2.5940     4.4290     0.4290 ca         1 1GM      -0.251000
     22 C16          2.2040     3.1840     0.9380 ca         1 1GM       0.176100
     23 O02          0.8790     2.8270     1.0120 oh         1 1GM      -0.492100
     24 H1          -0.4490    -0.9650     0.4350 hc         1 1GM       0.055367
     25 H2          -0.3830     0.0180    -1.0910 hc         1 1GM       0.055367
     26 H3          -0.5070     0.8490     0.5210 hc         1 1GM       0.055367
     27 H4           1.8070     1.0080    -0.4270 h1         1 1GM       0.068700
     28 H5           1.8830    -0.8200    -0.5720 h1         1 1GM       0.068700
     29 H6           3.5050    -1.6910     6.4780 ha         1 1GM       0.149000
     30 H7           4.5460     0.5390     6.3520 ha         1 1GM       0.138000
     31 H8           4.3260     1.9640     4.3010 ha         1 1GM       0.137000
     32 H9           5.2670     1.8520     1.6500 ha         1 1GM       0.151000
     33 H10          5.9950     4.0530     0.7360 ha         1 1GM       0.143000
     34 H11          5.2550     6.0440    -0.1370 ho         1 1GM       0.427000
     35 H12          1.8530     5.1650     0.0890 ha         1 1GM       0.158000
     36 H13          0.3440     3.6040     0.7890 ho         1 1GM       0.428000
@<TRIPOS>BOND
     1     1     2 1   
     2     1    24 1   
     3     1    25 1   
     4     1    26 1   
     5     2     3 1   
     6     2    27 1   
     7     2    28 1   
     8     3     4 1   
     9     3    15 1   
    10     4     5 2   
    11     5     6 ar  
    12     5    14 ar  
    13     6     7 1   
    14     6    11 ar  
    15     7     8 1   
    16     7     9 1   
    17     7    10 1   
    18    11    12 ar  
    19    11    29 1   
    20    12    13 ar  
    21    12    30 1   
    22    13    14 ar  
    23    13    31 1   
    24    14    15 2   
    25    15    16 1   
    26    16    17 ar  
    27    16    22 ar  
    28    17    18 ar  
    29    17    32 1   
    30    18    19 ar  
    31    18    33 1   
    32    19    20 1   
    33    19    21 ar  
    34    20    34 1   
    35    21    22 ar  
    36    21    35 1   
    37    22    23 1   
    38    23    36 1   
@<TRIPOS>SUBSTRUCTURE
     1 1GM         1 TEMP              0 ****  ****    0 ROOT
