@<TRIPOS>MOLECULE
molecule
   36    38     1     0     0
SMALL
bcc


@<TRIPOS>ATOM
      1 C01          0.0000     0.0000     0.0000 c3         1 1GM      -0.115100
      2 C02          1.5300     0.0000     0.0000 c3         1 1GM       0.061300
      3 N01          2.0180     0.0000     1.3820 na         1 1GM       0.153800
      4 N02          2.2870    -1.1460     2.1390 nc         1 1GM      -0.264400
      5 C03          2.7110    -0.7870     3.3390 ca         1 1GM      -0.010000
      6 C04          3.1190    -1.4890     4.4930 ca         1 1GM      -0.171300
      7 C05          3.1250    -2.9950     4.5040 c3         1 1GM       0.681200
      8 F01          3.9840    -3.4660     3.5040 f          1 1GM      -0.224633
      9 F02          3.5660    -3.4510     5.7500 f          1 1GM      -0.224633
     10 F03          1.8300    -3.4680     4.2650 f          1 1GM      -0.224633
     11 C06          3.5090    -0.7970     5.5940 ca         1 1GM      -0.034000
     12 C07          3.5160     0.5980     5.6200 ca         1 1GM      -0.189000
     13 C08          3.1350     1.3340     4.5440 ca         1 1GM      -0.017000
     14 C09          2.7210     0.6820     3.3690 ca         1 1GM      -0.182000
     15 C10          2.2810     1.1040     2.1110 cc         1 1GM       0.017700
     16 C11          2.1300     2.5010     1.6640 ca         1 1GM      -0.100800
     17 C12          0.9190     3.1710     1.8550 ca         1 1GM      -0.053000
     18 C13          0.7810     4.4760     1.4360 ca         1 1GM      -0.196000
     19 C14          1.8440     5.1300     0.8240 ca         1 1GM       0.161100
     20 O01          1.7010     6.4160     0.4090 oh         1 1GM      -0.519100
     21 C15          3.0510     4.4730     0.6310 ca         1 1GM      -0.255000
     22 C16          3.2030     3.1640     1.0520 ca         1 1GM       0.174100
     23 O02          4.3840     2.5190     0.8630 oh         1 1GM      -0.481100
     24 H1          -0.3610     0.1130     1.0150 hc         1 1GM       0.050367
     25 H2          -0.3610     0.8220    -0.6060 hc         1 1GM       0.050367
     26 H3          -0.3610    -0.9360    -0.4090 hc         1 1GM       0.050367
     27 H4           1.8910     0.8840    -0.5110 h1         1 1GM       0.073200
     28 H5           1.8910    -0.8850    -0.5100 h1         1 1GM       0.073200
     29 H6           3.8210    -1.3430     6.4760 ha         1 1GM       0.147000
     30 H7           3.8340     1.1080     6.5220 ha         1 1GM       0.134000
     31 H8           3.1490     2.4160     4.5900 ha         1 1GM       0.133000
     32 H9           0.0880     2.6640     2.3320 ha         1 1GM       0.150000
     33 H10         -0.1580     4.9950     1.5840 ha         1 1GM       0.149000
     34 H11          1.3520     6.4260    -0.4670 ho         1 1GM       0.426000
     35 H12          3.8770     4.9880     0.1550 ha         1 1GM       0.148000
     36 H13          5.0290     3.1300     0.5470 ho         1 1GM       0.428000
@<TRIPOS>BOND
     1    20    19 1   
     2    19    21 ar  
     3    19    18 ar  
     4    21    22 ar  
     5    18    17 ar  
     6    22    23 1   
     7    22    16 ar  
     8    17    16 ar  
     9    16    15 1   
    10     1     2 1   
    11    15     3 1   
    12    15    14 2   
    13     2     3 1   
    14     3     4 1   
    15    13    14 ar  
    16    13    12 ar  
    17    14     5 ar  
    18     4     5 2   
    19    12    11 ar  
    20     5     6 ar  
    21    11     6 ar  
    22     6     7 1   
    23     8     7 1   
    24     7     9 1   
    25     7    10 1   
    26     1    24 1   
    27     1    25 1   
    28     1    26 1   
    29     2    27 1   
    30     2    28 1   
    31    11    29 1   
    32    12    30 1   
    33    13    31 1   
    34    17    32 1   
    35    18    33 1   
    36    20    34 1   
    37    21    35 1   
    38    23    36 1   
@<TRIPOS>SUBSTRUCTURE
     1 1GM         1 TEMP              0 ****  ****    0 ROOT
