@<TRIPOS>MOLECULE
1GM
   36    38     1     0     0
SMALL
bcc


@<TRIPOS>ATOM
      1 C01         0.6610   -0.9400   -0.3670 c3        1 1GM     -0.106100
      2 C02         1.6420    0.1410    0.0410 c3        1 1GM      0.049300
      3 N01         2.0230    0.1280    1.4520 na        1 1GM      0.193800
      4 N02         2.2060   -1.0050    2.1350 nc        1 1GM     -0.259400
      5 C03         2.5670   -0.6350    3.4100 ca        1 1GM     -0.055000
      6 C04         2.8820   -1.4190    4.5540 ca        1 1GM     -0.138300
      7 C05         2.8360   -2.9350    4.4510 c3        1 1GM      0.697200
      8 F01         3.6960   -3.4710    3.5240 f         1 1GM     -0.237967
      9 F02         3.1550   -3.5980    5.6150 f         1 1GM     -0.237967
     10 F03         1.6070   -3.4470    4.1120 f         1 1GM     -0.237967
     11 C06         3.2200   -0.7800    5.7210 ca        1 1GM     -0.056000
     12 C07         3.2610    0.6390    5.8090 ca        1 1GM     -0.168000
     13 C08         2.9630    1.4350    4.7300 ca        1 1GM     -0.042000
     14 C09         2.6090    0.8220    3.5140 ca        1 1GM     -0.133000
     15 C10         2.2520    1.2800    2.2120 cc        1 1GM     -0.028300
     16 C11         2.1340    2.6510    1.7640 ca        1 1GM     -0.102800
     17 C12         1.3880    3.5560    2.5390 ca        1 1GM     -0.044000
     18 C13         1.2810    4.8940    2.1920 ca        1 1GM     -0.190000
     19 C14         1.9390    5.3570    1.0380 ca        1 1GM      0.176100
     20 O01         1.8000    6.6910    0.7480 oh        1 1GM     -0.487100
     21 C15         2.6910    4.4880    0.2400 ca        1 1GM     -0.304000
     22 C16         2.7800    3.1380    0.6090 ca        1 1GM      0.177100
     23 O02         3.4880    2.2380   -0.1530 oh        1 1GM     -0.497100
     24 H1          0.4010   -0.7850   -1.4430 hc        1 1GM      0.055033
     25 H2          1.1050   -1.9580   -0.2490 hc        1 1GM      0.055033
     26 H3         -0.2750   -0.8910    0.2400 hc        1 1GM      0.055033
     27 H4          2.5920    0.0460   -0.5620 h1        1 1GM      0.070200
     28 H5          1.2000    1.1590   -0.1640 h1        1 1GM      0.070200
     29 H6          3.4690   -1.3700    6.6200 ha        1 1GM      0.149000
     30 H7          3.5430    1.0890    6.7720 ha        1 1GM      0.138000
     31 H8          2.9970    2.5320    4.7960 ha        1 1GM      0.137000
     32 H9          0.8810    3.1840    3.4450 ha        1 1GM      0.152000
     33 H10         0.6950    5.5980    2.8010 ha        1 1GM      0.160000
     34 H11         2.3010    6.8810   -0.0590 ho        1 1GM      0.424000
     35 H12         3.2060    4.8540   -0.6580 ha        1 1GM      0.141000
     36 H13         3.9990    2.7340   -0.8100 ho        1 1GM      0.427000
@<TRIPOS>BOND
     1    1    2 1   
     2    1   24 1   
     3    1   25 1   
     4    1   26 1   
     5    2    3 1   
     6    2   27 1   
     7    2   28 1   
     8    3    4 1   
     9    3   15 1   
    10    4    5 2   
    11    5    6 ar  
    12    5   14 ar  
    13    6    7 1   
    14    6   11 ar  
    15    7    8 1   
    16    7    9 1   
    17    7   10 1   
    18   11   12 ar  
    19   11   29 1   
    20   12   13 ar  
    21   12   30 1   
    22   13   14 ar  
    23   13   31 1   
    24   14   15 2   
    25   15   16 1   
    26   16   17 ar  
    27   16   22 ar  
    28   17   18 ar  
    29   17   32 1   
    30   18   19 ar  
    31   18   33 1   
    32   19   20 1   
    33   19   21 ar  
    34   20   34 1   
    35   21   22 ar  
    36   21   35 1   
    37   22   23 1   
    38   23   36 1   
@<TRIPOS>SUBSTRUCTURE
     1 1GM         1 TEMP              0 ****  ****    0 ROOT
