@<TRIPOS>MOLECULE
1GO
   27    28     1     0     0
SMALL
bcc


@<TRIPOS>ATOM
      1 C10          0.0000     0.0000     0.0000 c          1 1GO       0.518100
      2 C13         -2.2350     0.0100    -1.0300 cc         1 1GO      -0.022400
      3 C15         -4.3280     0.8610    -0.6390 cd         1 1GO      -0.128000
      4 N01          5.2170    -1.5780     4.6460 nz         1 1GO      -0.127500
      5 O03          4.3070     0.5480     5.5080 o          1 1GO      -0.473800
      6 O04          5.9940     0.5480     3.6630 o          1 1GO      -0.473800
      7 C05          3.5550     0.0020     3.1260 cc         1 1GO       0.157300
      8 N06          2.2850     0.0030     3.3830 nd         1 1GO      -0.058000
      9 N07          1.5080     0.0010     2.3870 nd         1 1GO      -0.325000
     10 C08          2.0430     0.0000     1.2050 cc         1 1GO       0.480300
     11 N09          1.3480     0.0000     0.0000 ns         1 1GO      -0.031400
     12 O11         -0.6070     0.0000     1.0500 o          1 1GO      -0.492100
     13 C12         -0.7530     0.0060    -1.3050 c3         1 1GO       0.025900
     14 C14         -2.9870     1.1030    -0.8870 cd         1 1GO      -0.086000
     15 C16         -4.6650    -0.4290    -0.5900 cc         1 1GO       0.041900
     16 S17         -3.2390    -1.4230    -0.8550 ss         1 1GO      -0.259800
     17 S18          3.7480     0.0080     1.3740 ss         1 1GO      -0.273800
     18 H1          -5.0480     1.6580    -0.5020 ha         1 1GO       0.129000
     19 H2           4.4080    -2.0350     5.0190 hn         1 1GO       0.315800
     20 H3           5.4970    -2.0320     3.8000 hn         1 1GO       0.315800
     21 H4           1.8490     0.0240    -0.8660 hn         1 1GO       0.190500
     22 H5          -0.4940    -0.8780    -1.8750 hc         1 1GO       0.041700
     23 H6          -0.4880     0.8910    -1.8710 hc         1 1GO       0.041700
     24 H7          -2.5780     2.1040    -0.9520 ha         1 1GO       0.119000
     25 H8          -5.6650    -0.8060    -0.4090 h4         1 1GO       0.155000
     26 H013         5.9600    -1.6170     5.3160 hn         1 1GO       0.315800
     27 S02          4.8550     0.0030     4.3150 sy         1 1GO       0.906800
@<TRIPOS>BOND
     1     1    11 1   
     2     1    12 2   
     3     1    13 1   
     4     2    13 1   
     5     2    14 2   
     6     2    16 1   
     7     3    14 1   
     8     3    15 2   
     9     3    18 1   
    10     4    19 1   
    11     4    20 1   
    12     4    26 1   
    13     4    27 1   
    14     5    27 2   
    15     6    27 2   
    16     7     8 2   
    17     7    17 1   
    18     7    27 1   
    19     8     9 1   
    20     9    10 2   
    21    10    11 1   
    22    10    17 1   
    23    11    21 1   
    24    13    22 1   
    25    13    23 1   
    26    14    24 1   
    27    15    16 1   
    28    15    25 1   
@<TRIPOS>SUBSTRUCTURE
     1 1GO         1 TEMP              0 ****  ****    0 ROOT
