@<TRIPOS>MOLECULE
1GO
   27    28     1     0     0
SMALL
bcc


@<TRIPOS>ATOM
      1 C10         -0.2890     0.8460     0.4370 c          1 1GO       0.665100
      2 C13         -1.8760    -0.2480    -1.1590 cc         1 1GO      -0.218400
      3 C15         -2.9210    -2.3000    -1.5010 cd         1 1GO      -0.151000
      4 N01          3.7960    -0.6090     5.7500 nz         1 1GO      -0.779500
      5 O03          5.3910    -0.8370     3.7990 o          1 1GO      -0.573800
      6 O04          4.5700     1.3500     4.3040 o          1 1GO      -0.573800
      7 C05          3.0000    -0.2480     3.2330 cc         1 1GO      -0.379700
      8 N06          2.4980    -1.5730     3.1870 nd         1 1GO      -0.177000
      9 N07          1.4940    -1.7370     2.4730 nd         1 1GO      -0.295000
     10 C08          1.0770    -0.5150     1.8430 cc         1 1GO       0.457300
     11 N09          0.0090    -0.4150     0.9950 ns         1 1GO      -0.483400
     12 O11          0.4510     1.7890     0.7900 o          1 1GO      -0.573100
     13 C12         -1.4620     0.9950    -0.4990 c3         1 1GO      -0.040100
     14 C14         -2.6400    -1.2530    -0.5780 cd         1 1GO      -0.151000
     15 C16         -2.3690    -2.0380    -2.7410 cc         1 1GO      -0.154100
     16 S17         -1.5580    -0.5920    -2.7670 ss         1 1GO       0.115200
     17 S18          2.0580     0.7870     2.2830 ss         1 1GO       0.325200
     18 S02          4.3430     0.0180     4.0300 sy         1 1GO       1.481800
     19 H1          -3.5090    -3.1860    -1.2480 ha         1 1GO       0.173000
     20 H2           3.9830     0.0950     6.4620 hn         1 1GO       0.456467
     21 H3           4.3200    -1.4480     5.9940 hn         1 1GO       0.456467
     22 H4          -0.5260    -1.2260     0.7420 hn         1 1GO       0.386500
     23 H5          -2.3110     1.4150     0.1150 hc         1 1GO       0.113700
     24 H6          -1.1750     1.7820    -1.2550 hc         1 1GO       0.113700
     25 H7          -3.0150    -1.2460     0.4490 ha         1 1GO       0.156000
     26 H8          -2.4540    -2.6890    -3.6140 h4         1 1GO       0.192000
     27 H013         2.8080    -0.8390     5.7930 hn         1 1GO       0.456467
@<TRIPOS>BOND
     1     1    11 1   
     2     1    12 2   
     3     1    13 1   
     4     2    13 1   
     5     2    14 2   
     6     2    16 1   
     7     3    14 1   
     8     3    15 2   
     9     3    19 1   
    10     4    18 1   
    11     4    20 1   
    12     4    21 1   
    13     4    27 1   
    14     5    18 2   
    15     6    18 2   
    16     7     8 2   
    17     7    17 1   
    18     7    18 1   
    19     8     9 1   
    20     9    10 2   
    21    10    11 1   
    22    10    17 1   
    23    11    22 1   
    24    13    23 1   
    25    13    24 1   
    26    14    25 1   
    27    15    16 1   
    28    15    26 1   
@<TRIPOS>SUBSTRUCTURE
     1 1GO         1 TEMP              0 ****  ****    0 ROOT
