@<TRIPOS>MOLECULE
molecule
   27    28     1     0     0
SMALL
bcc


@<TRIPOS>ATOM
      1 C10          0.0000     0.0000     0.0000 c          1 1GO       0.631100
      2 C13         -2.2350     0.0100    -1.0300 cc         1 1GO      -0.061400
      3 C15         -4.3280     0.8610    -0.6390 cd         1 1GO      -0.158000
      4 N01          5.2170    -1.5780     4.6460 nz         1 1GO      -0.809500
      5 O03          4.3070     0.5480     5.5080 o          1 1GO      -0.493800
      6 O04          5.9940     0.5480     3.6630 o          1 1GO      -0.493800
      7 C05          3.5550     0.0020     3.1260 cc         1 1GO       0.035300
      8 N06          2.2850     0.0030     3.3830 nd         1 1GO      -0.134000
      9 N07          1.5080     0.0010     2.3870 nd         1 1GO      -0.335000
     10 C08          2.0430     0.0000     1.2050 cc         1 1GO       0.613300
     11 N09          1.3480     0.0000     0.0000 ns         1 1GO      -0.511400
     12 O11         -0.6070     0.0000     1.0500 o          1 1GO      -0.471100
     13 C12         -0.7530     0.0060    -1.3050 c3         1 1GO      -0.056100
     14 C14         -2.9870     1.1030    -0.8870 cd         1 1GO      -0.116000
     15 C16         -4.6650    -0.4290    -0.5900 cc         1 1GO      -0.042100
     16 S17         -3.2390    -1.4230    -0.8550 ss         1 1GO      -0.138800
     17 S18          3.7480     0.0080     1.3740 ss         1 1GO      -0.161800
     18 H1          -5.0480     1.6580    -0.5020 ha         1 1GO       0.159000
     19 H2           4.4080    -2.0350     5.0190 hn         1 1GO       0.496133
     20 H3           5.4970    -2.0320     3.8000 hn         1 1GO       0.496133
     21 H4           1.8490     0.0240    -0.8660 hn         1 1GO       0.353500
     22 H5          -0.4940    -0.8780    -1.8750 hc         1 1GO       0.080700
     23 H6          -0.4880     0.8910    -1.8710 hc         1 1GO       0.080700
     24 H7          -2.5780     2.1040    -0.9520 ha         1 1GO       0.148000
     25 H8          -5.6650    -0.8060    -0.4090 h4         1 1GO       0.181000
     26 H013         5.9600    -1.6170     5.3160 hn         1 1GO       0.496133
     27 S02          4.8550     0.0030     4.3150 sy         1 1GO       1.212800
@<TRIPOS>BOND
     1    15    16 1   
     2    15     3 2   
     3    16     2 1   
     4     3    14 1   
     5     2    14 2   
     6     2    13 1   
     7    13     1 1   
     8     1    12 2   
     9     1    11 1   
    10    11    10 1   
    11    10     9 2   
    12    10    17 1   
    13     9     8 1   
    14    17     7 1   
    15     8     7 2   
    16     7    27 1   
    17     4    27 1   
    18     6    27 2   
    19    27     5 2   
    20     3    18 1   
    21     4    19 1   
    22     4    20 1   
    23    11    21 1   
    24    13    22 1   
    25    13    23 1   
    26    14    24 1   
    27    15    25 1   
    28    26     4 1   
@<TRIPOS>SUBSTRUCTURE
     1 1GO         1 TEMP              0 ****  ****    0 ROOT
