@<TRIPOS>MOLECULE
molecule
   17    16     1     0     0
SMALL
bcc


@<TRIPOS>ATOM
      1 C3           0.0000     0.0000     0.0000 c3         1 1GP       0.114400
      2 O3           2.0070    -1.1660    -0.6740 oh         1 1GP      -0.599800
      3 C2           1.5300     0.0000     0.0000 c3         1 1GP       0.144100
      4 O2          -0.4760     0.1180    -1.3430 oh         1 1GP      -0.627800
      5 C1           2.0390     0.0000     1.4430 c3         1 1GP       0.153400
      6 O1P          3.4640     0.1170     1.4450 os         1 1GP      -0.536200
      7 O2P          3.4010    -1.1000     3.6550 o          1 1GP      -0.911833
      8 O3P          5.5370     0.1090     3.0620 o          1 1GP      -0.911833
      9 O4P          3.3580     1.4230     3.7250 o          1 1GP      -0.911833
     10 P            3.9280     0.1110     2.9860 p5         1 1GP       1.155900
     11 H31         -0.3610     0.8360     0.5860 h1         1 1GP       0.025200
     12 H32         -0.3610    -0.9260     0.4310 h1         1 1GP       0.025200
     13 HO3          2.5370    -0.9090    -1.4100 ho         1 1GP       0.385000
     14 H2           1.8910     0.8850    -0.5100 h1         1 1GP       0.032700
     15 HO2         -1.4150     0.2010    -1.3380 ho         1 1GP       0.370000
     16 H11          1.7520    -0.9260     1.9280 h1         1 1GP       0.047200
     17 H12          1.6070     0.8370     1.9790 h1         1 1GP       0.047200
@<TRIPOS>BOND
     1     1     3 1   
     2     1     4 1   
     3     1    11 1   
     4     1    12 1   
     5     2     3 1   
     6     2    13 1   
     7     3     5 1   
     8     3    14 1   
     9     4    15 1   
    10     5     6 1   
    11     5    16 1   
    12     5    17 1   
    13     6    10 1   
    14     7    10 1   
    15     8    10 1   
    16     9    10 1   
@<TRIPOS>SUBSTRUCTURE
     1 1GP         1 TEMP              0 ****  ****    0 ROOT
