@<TRIPOS>MOLECULE
1GP
   17    16     1     0     0
SMALL
bcc


@<TRIPOS>ATOM
      1 C3           0.0110    -0.1860    -0.0260 c3         1 1GP       0.145400
      2 O3           1.9530    -1.4380    -0.6660 oh         1 1GP      -0.665800
      3 C2           1.5400    -0.1890    -0.1220 c3         1 1GP       0.078100
      4 O2          -0.4870     1.0240     0.4970 oh         1 1GP      -0.685800
      5 C1           2.2270     0.0560     1.2420 c3         1 1GP       0.205400
      6 O1P          2.1460    -1.0630     2.0310 os         1 1GP      -0.574200
      7 O2P          2.3020     0.1400     4.2570 o          1 1GP      -0.931500
      8 O3P          0.0910    -0.1050     3.0330 o          1 1GP      -0.931500
      9 O4P          1.1830    -2.1660     4.1000 o          1 1GP      -0.931500
     10 P            1.3430    -0.7780     3.5550 p5         1 1GP       1.329900
     11 H31         -0.4300    -0.2750    -1.0580 h1         1 1GP       0.020700
     12 H32         -0.3210    -1.0560     0.6000 h1         1 1GP       0.020700
     13 HO3          2.0490    -2.0330     0.0950 ho         1 1GP       0.433000
     14 H2           1.8770     0.5830    -0.8660 h1         1 1GP       0.006700
     15 HO2         -0.3980     0.9550     1.4750 ho         1 1GP       0.490000
     16 H11          3.3120     0.2860     1.0120 h1         1 1GP      -0.003300
     17 H12          1.7600     0.9520     1.7370 h1         1 1GP      -0.003300
@<TRIPOS>BOND
     1     1     3 1   
     2     1     4 1   
     3     1    11 1   
     4     1    12 1   
     5     2     3 1   
     6     2    13 1   
     7     3     5 1   
     8     3    14 1   
     9     4    15 1   
    10     5     6 1   
    11     5    16 1   
    12     5    17 1   
    13     6    10 1   
    14     7    10 1   
    15     8    10 1   
    16     9    10 1   
@<TRIPOS>SUBSTRUCTURE
     1 1GP         1 TEMP              0 ****  ****    0 ROOT
