@<TRIPOS>MOLECULE
1GP
   17    16     1     0     0
SMALL
bcc


@<TRIPOS>ATOM
      1 C3          0.2130   -0.2770    0.4660 c3        1 1GP      0.072400
      2 O3          2.0860   -0.2240   -1.0340 oh        1 1GP     -0.667800
      3 C2          1.3800    0.5510   -0.0750 c3        1 1GP      0.080100
      4 O2         -0.5110   -0.8950   -0.5960 oh        1 1GP     -0.660800
      5 C1          2.3040    1.0260    1.0750 c3        1 1GP      0.210400
      6 O1P         3.3280    0.1400    1.2750 os        1 1GP     -0.566200
      7 O2P         2.0360   -1.3650    2.7650 o         1 1GP     -0.928500
      8 O3P         4.6000   -1.3670    2.8760 o         1 1GP     -0.928500
      9 O4P         3.2540    0.6340    3.7560 o         1 1GP     -0.928500
     10 P           3.3210   -0.5830    2.8750 p5        1 1GP      1.314900
     11 H31         0.5960   -1.0550    1.1910 h1        1 1GP      0.084200
     12 H32        -0.5340    0.3870    0.9730 h1        1 1GP      0.084200
     13 HO3         2.8070   -0.6660   -0.5520 ho        1 1GP      0.447000
     14 H2          0.9850    1.4310   -0.6560 h1        1 1GP     -0.001300
     15 HO2         0.1540   -1.3330   -1.1410 ho        1 1GP      0.399000
     16 H11         1.6930    1.1690    2.0100 h1        1 1GP     -0.005300
     17 H12         2.7210    2.0300    0.7550 h1        1 1GP     -0.005300
@<TRIPOS>BOND
     1    1    3 1   
     2    1    4 1   
     3    1   11 1   
     4    1   12 1   
     5    2    3 1   
     6    2   13 1   
     7    3    5 1   
     8    3   14 1   
     9    4   15 1   
    10    5    6 1   
    11    5   16 1   
    12    5   17 1   
    13    6   10 1   
    14    7   10 1   
    15    8   10 1   
    16    9   10 1   
@<TRIPOS>SUBSTRUCTURE
     1 1GP         1 TEMP              0 ****  ****    0 ROOT
