@<TRIPOS>MOLECULE
molecule
   42    44     1     0     0
SMALL
bcc


@<TRIPOS>ATOM
      1 C10          0.0000     0.0000     0.0000 ca         1 1GQ      -0.197000
      2 C13         -0.0120     0.0060     2.4060 ca         1 1GQ      -0.254000
      3 C17          4.1880    -1.8770    -0.5300 ca         1 1GQ      -0.024000
      4 C20          6.8060    -1.1860     0.1240 ca         1 1GQ      -0.215300
      5 C21          8.2280    -0.8250     0.4670 c3         1 1GQ       0.672200
      6 C01          8.7110     0.4670     5.5750 c3         1 1GQ      -0.089100
      7 C02          8.4050     1.1140     4.2230 c3         1 1GQ      -0.081400
      8 C03          7.1280     0.5050     3.6420 c3         1 1GQ      -0.107400
      9 N05          5.6740     0.4790     1.6750 na         1 1GQ       0.072900
     10 N06          4.3320     0.7610     1.9450 nc         1 1GQ      -0.465100
     11 C07          3.5580    -0.0010     1.2100 cd         1 1GQ       0.430500
     12 C08          2.0760     0.0000     1.2070 ca         1 1GQ      -0.134900
     13 C09          1.3800     0.0000     0.0000 ca         1 1GQ      -0.062000
     14 C11         -0.6980     0.0060     1.2010 ca         1 1GQ       0.155100
     15 O12         -2.0570     0.0110     1.1940 oh         1 1GQ      -0.522100
     16 C14          1.3720     0.0010     2.4160 ca         1 1GQ       0.179100
     17 O15          2.0450     0.0020     3.5960 oh         1 1GQ      -0.474100
     18 C16          4.4260    -0.8710     0.4090 ca         1 1GQ      -0.244900
     19 C18          5.2400    -2.5200    -1.1160 ca         1 1GQ      -0.185000
     20 C19          6.5470    -2.1780    -0.7940 ca         1 1GQ      -0.034000
     21 F22          9.1020    -1.7140    -0.1690 f          1 1GQ      -0.222967
     22 F23          8.4960     0.4780     0.0360 f          1 1GQ      -0.222967
     23 F24          8.4090    -0.9040     1.8530 f          1 1GQ      -0.222967
     24 C25          5.7480    -0.5250     0.7440 ca         1 1GQ       0.018800
     25 H1          -0.5400     0.0000    -0.9390 ha         1 1GQ       0.145000
     26 H2          -0.5600     0.0080     3.3410 ha         1 1GQ       0.145000
     27 H3           3.1720    -2.1510    -0.7880 ha         1 1GQ       0.139000
     28 H4           9.6230     0.8890     5.9790 hc         1 1GQ       0.034700
     29 H5           7.8920     0.6560     6.2590 hc         1 1GQ       0.034700
     30 H6           8.8330    -0.6010     5.4450 hc         1 1GQ       0.034700
     31 H7           8.2670     2.1810     4.3560 hc         1 1GQ       0.041200
     32 H8           9.2300     0.9380     3.5440 hc         1 1GQ       0.041200
     33 H9           7.2650    -0.5620     3.5100 hc         1 1GQ       0.061200
     34 H10          6.3020     0.6810     4.3220 hc         1 1GQ       0.061200
     35 H11          6.5900     2.2000     2.4360 h1         1 1GQ       0.073200
     36 H12          7.6850     1.0590     1.6420 h1         1 1GQ       0.073200
     37 H13          1.9210    -0.0040    -0.9380 ha         1 1GQ       0.145000
     38 H14         -2.3670     0.9000     1.1420 ho         1 1GQ       0.425000
     39 H15          1.4320    -0.0780     4.3080 ho         1 1GQ       0.423000
     40 H16          5.0530    -3.3030    -1.8410 ha         1 1GQ       0.140000
     41 H17          7.3700    -2.6980    -1.2690 ha         1 1GQ       0.150000
     42 C04          6.8220     1.1520     2.2900 c3         1 1GQ       0.061300
@<TRIPOS>BOND
     1    22     5 1   
     2    42     8 1   
     3    42     9 1   
     4     8     7 1   
     5    17    16 1   
     6     6     7 1   
     7     5    21 1   
     8     5    23 1   
     9     5     4 1   
    10     9    10 1   
    11     9    24 1   
    12    10    11 2   
    13    24     4 ar  
    14    24    18 ar  
    15     4    20 ar  
    16    16     2 ar  
    17    16    12 ar  
    18    11    18 1   
    19    11    12 1   
    20    18     3 ar  
    21    20    19 ar  
    22     2    14 ar  
    23    12    13 ar  
    24     3    19 ar  
    25    14    15 1   
    26    14     1 ar  
    27    13     1 ar  
    28     1    25 1   
    29     2    26 1   
    30     3    27 1   
    31     6    28 1   
    32     6    29 1   
    33     6    30 1   
    34     7    31 1   
    35     7    32 1   
    36     8    33 1   
    37     8    34 1   
    38    42    35 1   
    39    42    36 1   
    40    13    37 1   
    41    15    38 1   
    42    17    39 1   
    43    19    40 1   
    44    20    41 1   
@<TRIPOS>SUBSTRUCTURE
     1 1GQ         1 TEMP              0 ****  ****    0 ROOT
