@<TRIPOS>MOLECULE
1GQ
   42    44     1     0     0
SMALL
bcc


@<TRIPOS>ATOM
      1 C10          0.2960    -0.5190     0.1520 ca         1 1GQ      -0.196000
      2 C13          0.1330     0.3720     2.4200 ca         1 1GQ      -0.310000
      3 C17          4.3940     1.2700    -0.7920 ca         1 1GQ      -0.032000
      4 C20          7.0650     0.9100     0.1520 ca         1 1GQ      -0.185300
      5 C21          8.5180     0.8110     0.5890 c3         1 1GQ       0.693200
      6 C01          6.6770    -4.7180     2.6180 c3         1 1GQ      -0.093100
      7 C02          6.1900    -3.3120     2.8620 c3         1 1GQ      -0.081400
      8 C03          7.2540    -2.2980     2.5100 c3         1 1GQ      -0.102400
      9 N05          5.8450    -0.2320     2.1510 na         1 1GQ       0.099900
     10 N06          4.5430    -0.4720     2.4290 nc         1 1GQ      -0.475100
     11 C07          3.7770     0.0320     1.4380 cd         1 1GQ       0.416500
     12 C08          2.3250    -0.0010     1.3950 ca         1 1GQ      -0.163900
     13 C09          1.6800    -0.4640     0.2390 ca         1 1GQ      -0.051000
     14 C11         -0.4740    -0.1010     1.2520 ca         1 1GQ       0.173100
     15 O12         -1.8380    -0.1800     1.1110 oh         1 1GQ      -0.491100
     16 C14          1.5340     0.4200     2.4850 ca         1 1GQ       0.195100
     17 O15          2.1820     0.8970     3.5960 oh         1 1GQ      -0.473100
     18 C16          4.6350     0.6150     0.4070 ca         1 1GQ      -0.214900
     19 C18          5.4810     1.7310    -1.5250 ca         1 1GQ      -0.175000
     20 C19          6.7880     1.5540    -1.0540 ca         1 1GQ      -0.053000
     21 F22          8.9890    -0.4690     0.7570 f          1 1GQ      -0.239300
     22 F23          8.8050     1.4360     1.7800 f          1 1GQ      -0.239300
     23 F24          9.4230     1.3670    -0.2860 f          1 1GQ      -0.239300
     24 C25          5.9850     0.4110     0.9030 ca         1 1GQ       0.002800
     25 H1          -0.2060    -0.8860    -0.7530 ha         1 1GQ       0.156000
     26 H2          -0.4730     0.7000     3.2750 ha         1 1GQ       0.138000
     27 H3           3.3620     1.4190    -1.1450 ha         1 1GQ       0.147000
     28 H4           7.5700    -4.9440     3.2490 hc         1 1GQ       0.033367
     29 H5           6.9610    -4.8560     1.5460 hc         1 1GQ       0.033367
     30 H6           5.8740    -5.4530     2.8670 hc         1 1GQ       0.033367
     31 H7           5.2680    -3.1270     2.2520 hc         1 1GQ       0.048200
     32 H8           5.9010    -3.1960     3.9410 hc         1 1GQ       0.048200
     33 H9           7.4710    -2.3350     1.4100 hc         1 1GQ       0.057200
     34 H10          8.2100    -2.5570     3.0420 hc         1 1GQ       0.057200
     35 H11          6.5570    -0.8870     4.0100 h1         1 1GQ       0.074700
     36 H12          7.8050    -0.2240     2.8540 h1         1 1GQ       0.074700
     37 H13          2.2920    -0.7940    -0.6160 ha         1 1GQ       0.144000
     38 H14         -2.2460     0.1270     1.9340 ho         1 1GQ       0.422000
     39 H15          1.5130     1.1120     4.2650 ho         1 1GQ       0.420000
     40 H16          5.3220     2.2480    -2.4830 ha         1 1GQ       0.143000
     41 H17          7.6250     1.9430    -1.6590 ha         1 1GQ       0.152000
     42 C04          6.8900    -0.8760     2.9320 c3         1 1GQ       0.051300
@<TRIPOS>BOND
     1     1    13 ar  
     2     1    14 ar  
     3     1    25 1   
     4     2    14 ar  
     5     2    16 ar  
     6     2    26 1   
     7     3    18 ar  
     8     3    19 ar  
     9     3    27 1   
    10     4     5 1   
    11     4    20 ar  
    12     4    24 ar  
    13     5    21 1   
    14     5    22 1   
    15     5    23 1   
    16     6     7 1   
    17     6    28 1   
    18     6    29 1   
    19     6    30 1   
    20     7     8 1   
    21     7    31 1   
    22     7    32 1   
    23     8    33 1   
    24     8    34 1   
    25     8    42 1   
    26     9    10 1   
    27     9    24 1   
    28     9    42 1   
    29    10    11 2   
    30    11    12 1   
    31    11    18 1   
    32    12    13 ar  
    33    12    16 ar  
    34    13    37 1   
    35    14    15 1   
    36    15    38 1   
    37    16    17 1   
    38    17    39 1   
    39    18    24 ar  
    40    19    20 ar  
    41    19    40 1   
    42    20    41 1   
    43    35    42 1   
    44    36    42 1   
@<TRIPOS>SUBSTRUCTURE
     1 1GQ         1 TEMP              0 ****  ****    0 ROOT
