@<TRIPOS>MOLECULE
1GQ
   42    42     1     0     0
SMALL
bcc


@<TRIPOS>ATOM
      1 C10         0.7610   -1.1790   -0.9720 c1        1 1GQ     -0.060000
      2 C13        -0.2020   -0.0090    2.0700 c1        1 1GQ     -0.244000
      3 C17         4.0880   -1.8170   -0.6600 c2        1 1GQ     -0.028000
      4 C20         6.7490   -0.9030   -0.0490 c2        1 1GQ     -0.256000
      5 C21         8.1900   -0.4770    0.2050 c3        1 1GQ      0.486000
      6 C01         9.5270   -0.0150    5.9120 c3        1 1GQ     -0.214500
      7 C02         8.8110    0.7630    4.8370 c3        1 1GQ     -0.163000
      8 C03         7.3770    1.0420    5.2050 c3        1 1GQ     -0.214500
      9 N05         5.4560    0.8320    1.4060 na        1 1GQ     -0.102000
     10 N06         4.0910    1.0280    1.6110 n2        1 1GQ      0.037000
     11 C07         3.3900    0.1340    0.9200 c2        1 1GQ      0.020000
     12 C08         1.9390    0.0490    0.8930 c2        1 1GQ     -0.174000
     13 C09         1.2910    0.0590   -0.4480 c3        1 1GQ     -0.197000
     14 C11        -1.3990   -0.0020    2.1030 c1        1 1GQ      0.033000
     15 O12        -2.7080   -0.0440    2.2510 oh        1 1GQ     -0.132000
     16 C14         1.2060   -0.0040    2.0410 c2        1 1GQ      0.235000
     17 O15         1.8710   -0.1000    3.2420 oh        1 1GQ     -0.230000
     18 C16         4.2930   -0.7680    0.1570 c2        1 1GQ     -0.170000
     19 C18         5.2590   -2.5130   -1.2420 c3        1 1GQ     -0.207000
     20 C19         6.5820   -2.0130   -0.9040 c1        1 1GQ     -0.067000
     21 F22         9.1460   -1.1920   -0.4630 f         1 1GQ     -0.162667
     22 F23         8.4570    0.8290   -0.1400 f         1 1GQ     -0.162667
     23 F24         8.5770   -0.5590    1.5240 f         1 1GQ     -0.162667
     24 C25         5.6510   -0.2800    0.5000 c2        1 1GQ      0.118000
     25 H1          0.4180    0.7830   -0.4490 hc        1 1GQ      0.160500
     26 H2          0.7840   -2.0620   -0.3130 ha        1 1GQ      0.045000
     27 H3          3.0790   -2.1760   -0.9170 ha        1 1GQ      0.147000
     28 H4          6.8300    0.0890    5.4080 hc        1 1GQ      0.072667
     29 H5          9.0280   -0.9990    6.0830 hc        1 1GQ      0.072667
     30 H6         10.5870   -0.2030    5.6170 hc        1 1GQ      0.072667
     31 H7          9.5230    0.5510    6.8750 hc        1 1GQ      0.072667
     32 H8          8.8450    0.1890    3.8720 hc        1 1GQ      0.079000
     33 H9          9.3460    1.7330    4.6590 hc        1 1GQ      0.079000
     34 H10         7.3220    1.6770    6.1220 hc        1 1GQ      0.072667
     35 H11         6.8570    1.5780    4.3720 hc        1 1GQ      0.072667
     36 H12         7.4050    1.3930    1.8200 ha        1 1GQ      0.074000
     37 H13         2.0100    0.4660   -1.2220 hc        1 1GQ      0.160500
     38 H14        -3.0940    0.3190    1.4270 ho        1 1GQ      0.248000
     39 H15         1.2370    0.0410    3.9620 ho        1 1GQ      0.237000
     40 H16         5.2340   -3.6070   -0.9430 hc        1 1GQ      0.180500
     41 H17         5.1810   -2.5080   -2.3730 hc        1 1GQ      0.180500
     42 C04         6.3360    1.6140    2.0230 c1        1 1GQ     -0.008000
@<TRIPOS>BOND
     1    1   13 1   
     2    1   26 1   
     3    2   14 1   
     4    2   16 1   
     5    3   18 1   
     6    3   19 1   
     7    3   27 1   
     8    4    5 1   
     9    4   20 1   
    10    4   24 1   
    11    5   21 1   
    12    5   22 1   
    13    5   23 1   
    14    6    7 1   
    15    6   29 1   
    16    6   30 1   
    17    6   31 1   
    18    7    8 1   
    19    7   32 1   
    20    7   33 1   
    21    8   28 1   
    22    8   34 1   
    23    8   35 1   
    24    9   10 1   
    25    9   24 1   
    26    9   42 1   
    27   10   11 1   
    28   11   12 1   
    29   11   18 1   
    30   12   13 1   
    31   12   16 1   
    32   13   25 1   
    33   13   37 1   
    34   14   15 1   
    35   15   38 1   
    36   16   17 1   
    37   17   39 1   
    38   18   24 1   
    39   19   20 1   
    40   19   40 1   
    41   19   41 1   
    42   36   42 1   
@<TRIPOS>SUBSTRUCTURE
     1 1GQ         1 TEMP              0 ****  ****    0 ROOT
