@<TRIPOS>MOLECULE
1GR
   42    44     1     0     0
SMALL
bcc


@<TRIPOS>ATOM
      1 C01        -0.0750    0.0880    0.0760 c3        1 1GR     -0.092100
      2 C02         1.4330    0.0130    0.0050 c3        1 1GR     -0.087700
      3 C03         2.0340    0.0460    1.3970 c3        1 1GR     -0.092100
      4 C04         1.9110   -1.2720   -0.6900 c3        1 1GR      0.052300
      5 N01         1.6890   -1.3320   -2.1260 na        1 1GR      0.101900
      6 N02         0.4830   -1.7010   -2.6140 nc        1 1GR     -0.473100
      7 C05         2.4900   -0.7580   -3.1370 ca        1 1GR      0.002800
      8 C06         3.8000   -0.2520   -3.2080 ca        1 1GR     -0.185300
      9 C07         4.7510   -0.1880   -2.0220 c3        1 1GR      0.693200
     10 F01         5.0350   -1.4040   -1.4460 f         1 1GR     -0.239300
     11 F02         5.9950    0.3250   -2.3080 f         1 1GR     -0.239300
     12 F03         4.3230    0.5920   -0.9740 f         1 1GR     -0.239300
     13 C08         4.2680    0.1950   -4.4440 ca        1 1GR     -0.053000
     14 C09         3.4890    0.1370   -5.6060 ca        1 1GR     -0.175000
     15 C10         2.2020   -0.3850   -5.5710 ca        1 1GR     -0.032000
     16 C11         1.7010   -0.8280   -4.3550 ca        1 1GR     -0.214900
     17 C12         0.4430   -1.4470   -3.9390 cd        1 1GR      0.415500
     18 C13        -0.6760   -1.7380   -4.8190 ca        1 1GR     -0.162900
     19 C14        -1.1670   -0.7360   -5.6650 ca        1 1GR     -0.044000
     20 C15        -2.2400   -0.9700   -6.5180 ca        1 1GR     -0.253000
     21 C16        -2.8420   -2.2380   -6.5300 ca        1 1GR      0.173100
     22 O01        -3.9070   -2.5440   -7.3420 oh        1 1GR     -0.493100
     23 C17        -2.3750   -3.2670   -5.7030 ca        1 1GR     -0.255000
     24 C18        -1.2920   -3.0090   -4.8510 ca        1 1GR      0.191100
     25 O02        -0.7780   -3.9860   -4.0370 oh        1 1GR     -0.474100
     26 H1         -0.5180    0.2070   -0.9410 hc        1 1GR      0.040033
     27 H2         -0.4950   -0.8380    0.5390 hc        1 1GR      0.040033
     28 H3         -0.3840    0.9640    0.6960 hc        1 1GR      0.040033
     29 H4          1.8190    0.9040   -0.5650 hc        1 1GR      0.061700
     30 H5          1.6810    0.9540    1.9430 hc        1 1GR      0.040033
     31 H6          3.1500    0.0810    1.3350 hc        1 1GR      0.040033
     32 H7          1.7340   -0.8570    1.9800 hc        1 1GR      0.040033
     33 H8          3.0180   -1.3930   -0.5230 h1        1 1GR      0.075700
     34 H9          1.3860   -2.1550   -0.2210 h1        1 1GR      0.075700
     35 H10         5.2910    0.6050   -4.5130 ha        1 1GR      0.152000
     36 H11         3.9110    0.5020   -6.5530 ha        1 1GR      0.143000
     37 H12         1.5880   -0.4560   -6.4810 ha        1 1GR      0.146000
     38 H13        -0.6930    0.2580   -5.6460 ha        1 1GR      0.142000
     39 H14        -2.6150   -0.1710   -7.1720 ha        1 1GR      0.139000
     40 H15        -4.1340   -1.7510   -7.8490 ho        1 1GR      0.424000
     41 H16        -2.8580   -4.2530   -5.7290 ha        1 1GR      0.155000
     42 H17        -1.3190   -4.7830   -4.1450 ho        1 1GR      0.423000
@<TRIPOS>BOND
     1    1    2 1   
     2    1   26 1   
     3    1   27 1   
     4    1   28 1   
     5    2    3 1   
     6    2    4 1   
     7    2   29 1   
     8    3   30 1   
     9    3   31 1   
    10    3   32 1   
    11    4    5 1   
    12    4   33 1   
    13    4   34 1   
    14    5    6 1   
    15    5    7 1   
    16    6   17 2   
    17    7    8 ar  
    18    7   16 ar  
    19    8    9 1   
    20    8   13 ar  
    21    9   10 1   
    22    9   11 1   
    23    9   12 1   
    24   13   14 ar  
    25   13   35 1   
    26   14   15 ar  
    27   14   36 1   
    28   15   16 ar  
    29   15   37 1   
    30   16   17 1   
    31   17   18 1   
    32   18   19 ar  
    33   18   24 ar  
    34   19   20 ar  
    35   19   38 1   
    36   20   21 ar  
    37   20   39 1   
    38   21   22 1   
    39   21   23 ar  
    40   22   40 1   
    41   23   24 ar  
    42   23   41 1   
    43   24   25 1   
    44   25   42 1   
@<TRIPOS>SUBSTRUCTURE
     1 1GR         1 TEMP              0 ****  ****    0 ROOT
