@<TRIPOS>MOLECULE
molecule
   42    44     1     0     0
SMALL
bcc


@<TRIPOS>ATOM
      1 C01          0.0000     0.0000     0.0000 c3         1 1GR      -0.085600
      2 C02          1.5300     0.0000     0.0000 c3         1 1GR      -0.101700
      3 C03          2.0400     0.0000     1.4420 c3         1 1GR      -0.085600
      4 C04          2.0400    -1.2490    -0.7220 c3         1 1GR       0.064300
      5 N01          1.6630    -1.1840    -2.1360 na         1 1GR       0.073900
      6 N02          0.4250    -1.5640    -2.6620 nc         1 1GR      -0.461100
      7 C05          2.4690    -0.7350    -3.1520 ca         1 1GR       0.018800
      8 C06          3.7710    -0.2430    -3.2010 ca         1 1GR      -0.214300
      9 C07          4.5820    -0.1250    -1.9360 c3         1 1GR       0.672200
     10 F01          4.8340    -1.4020    -1.4220 f          1 1GR      -0.222633
     11 F02          5.7980     0.5100    -2.2200 f          1 1GR      -0.222633
     12 F03          3.8720     0.6270    -0.9940 f          1 1GR      -0.222633
     13 C08          4.3120     0.1350    -4.4080 ca         1 1GR      -0.034000
     14 C09          3.5740     0.0300    -5.5790 ca         1 1GR      -0.185000
     15 C10          2.2950    -0.4500    -5.5540 ca         1 1GR      -0.025000
     16 C11          1.7240    -0.8410    -4.3410 ca         1 1GR      -0.244900
     17 C12          0.4140    -1.3800    -3.9600 cd         1 1GR       0.427500
     18 C13         -0.7150    -1.6640    -4.8750 ca         1 1GR      -0.128900
     19 C14         -1.0950    -0.7220    -5.8300 ca         1 1GR      -0.068000
     20 C15         -2.1470    -0.9890    -6.6810 ca         1 1GR      -0.188000
     21 C16         -2.8310    -2.1940    -6.5900 ca         1 1GR       0.149100
     22 O01         -3.8660    -2.4500    -7.4310 oh         1 1GR      -0.522100
     23 C17         -2.4590    -3.1370    -5.6420 ca         1 1GR      -0.242000
     24 C18         -1.4010    -2.8810    -4.7880 ca         1 1GR       0.171100
     25 O02         -1.0360    -3.8030    -3.8600 oh         1 1GR      -0.481100
     26 H1          -0.3610     0.5830     0.8380 hc         1 1GR       0.038367
     27 H2          -0.3610     0.4340    -0.9240 hc         1 1GR       0.038367
     28 H3          -0.3610    -1.0180     0.0860 hc         1 1GR       0.038367
     29 H4           1.8910     0.8850    -0.5110 hc         1 1GR       0.069700
     30 H5           3.1150    -0.1340     1.4460 hc         1 1GR       0.038367
     31 H6           1.5740    -0.8100     1.9900 hc         1 1GR       0.038367
     32 H7           1.7920     0.9440     1.9130 hc         1 1GR       0.038367
     33 H8           3.1190    -1.3000    -0.6380 h1         1 1GR       0.074700
     34 H9           1.6010    -2.1310    -0.2720 h1         1 1GR       0.074700
     35 H10          5.3250     0.5180    -4.4450 ha         1 1GR       0.150000
     36 H11          4.0150     0.3330    -6.5210 ha         1 1GR       0.140000
     37 H12          1.7260    -0.5280    -6.4730 ha         1 1GR       0.138000
     38 H13         -0.5640     0.2200    -5.9030 ha         1 1GR       0.145000
     39 H14         -2.4420    -0.2560    -7.4220 ha         1 1GR       0.145000
     40 H15         -4.6690    -2.1400    -7.0450 ho         1 1GR       0.425000
     41 H16         -2.9930    -4.0770    -5.5760 ha         1 1GR       0.146000
     42 H17         -1.2210    -4.6680    -4.1860 ho         1 1GR       0.423000
@<TRIPOS>BOND
     1    22    21 1
     2    21    20 ar
     3    21    23 ar
     4    20    19 ar
     5    23    24 ar
     6    19    18 ar
     7    24    18 ar
     8    24    25 1
     9    18    17 1
    10    15    16 ar
    11    15    14 ar
    12    17    16 1
    13    17     6 2
    14    16     7 ar
    15    14    13 ar
    16     6     5 1
    17     1     2 1
    18     7     5 1
    19     7     8 ar
    20     5     4 1
    21    13     8 ar
    22     8     9 1
    23     2     4 1
    24     2     3 1
    25     9    11 1
    26     9    12 1
    27     9    10 1
    28     1    26 1
    29     1    27 1
    30     1    28 1
    31     2    29 1
    32     3    30 1
    33     3    31 1
    34     3    32 1
    35     4    33 1
    36     4    34 1
    37    13    35 1
    38    14    36 1
    39    15    37 1
    40    19    38 1
    41    20    39 1
    42    22    40 1
    43    23    41 1
    44    25    42 1
@<TRIPOS>SUBSTRUCTURE
     1 1GR         1 TEMP              0 ****  ****    0 ROOT
