@<TRIPOS>MOLECULE
1GR
   42    44     1     0     0
SMALL
bcc


@<TRIPOS>ATOM
      1 C01         -0.0670     0.0030     0.3870 c3         1 1GR      -0.092100
      2 C02          1.3610    -0.2140    -0.0590 c3         1 1GR      -0.088700
      3 C03          2.2120    -0.7060     1.0950 c3         1 1GR      -0.092100
      4 C04          1.9940     1.0770    -0.6030 c3         1 1GR       0.052300
      5 N01          1.4980     1.5280    -1.8940 na         1 1GR       0.101900
      6 N02          0.3510     2.2420    -1.9690 nc         1 1GR      -0.475100
      7 C05          1.8870     1.0590    -3.1660 ca         1 1GR       0.001800
      8 C06          2.9770     0.3270    -3.6720 ca         1 1GR      -0.185300
      9 C07          4.1120    -0.2060    -2.8120 c3         1 1GR       0.693200
     10 F01          4.8110     0.7550    -2.1200 f          1 1GR      -0.239300
     11 F02          3.7380    -1.1120    -1.8480 f          1 1GR      -0.239300
     12 F03          5.0950    -0.8740    -3.5050 f          1 1GR      -0.239300
     13 C08          3.0370     0.0990    -5.0470 ca         1 1GR      -0.053000
     14 C09          2.0680     0.5890    -5.9310 ca         1 1GR      -0.175000
     15 C10          0.9970     1.3410    -5.4630 ca         1 1GR      -0.032000
     16 C11          0.9000     1.5760    -4.0980 ca         1 1GR      -0.214900
     17 C12         -0.0370     2.3230    -3.2600 cd         1 1GR       0.415500
     18 C13         -1.2050     3.0380    -3.7450 ca         1 1GR      -0.163900
     19 C14         -2.1020     2.3890    -4.6060 ca         1 1GR      -0.051000
     20 C15         -3.2340     3.0270    -5.0920 ca         1 1GR      -0.196000
     21 C16         -3.4850     4.3570    -4.7090 ca         1 1GR       0.173100
     22 O01         -4.6210     4.9370    -5.2180 oh         1 1GR      -0.491100
     23 C17         -2.6110     5.0390    -3.8570 ca         1 1GR      -0.310000
     24 C18         -1.4710     4.3740    -3.3790 ca         1 1GR       0.195100
     25 O02         -0.5680     5.0020    -2.5600 oh         1 1GR      -0.473100
     26 H1          -0.4520    -0.9160     0.8920 hc         1 1GR       0.040033
     27 H2          -0.1300     0.8540     1.1080 hc         1 1GR       0.040033
     28 H3          -0.7290     0.2260    -0.4820 hc         1 1GR       0.040033
     29 H4           1.3780    -1.0000    -0.8680 hc         1 1GR       0.061700
     30 H5           3.2430    -0.9500     0.7380 hc         1 1GR       0.040033
     31 H6           2.2810     0.0700     1.8940 hc         1 1GR       0.040033
     32 H7           1.7620    -1.6280     1.5350 hc         1 1GR       0.040033
     33 H8           3.1040     0.9260    -0.7120 h1         1 1GR       0.075700
     34 H9           1.8230     1.9060     0.1440 h1         1 1GR       0.075700
     35 H10          3.8810    -0.4830    -5.4570 ha         1 1GR       0.152000
     36 H11          2.1670     0.3800    -7.0060 ha         1 1GR       0.143000
     37 H12          0.2400     1.7480    -6.1510 ha         1 1GR       0.147000
     38 H13         -1.9000     1.3450    -4.8960 ha         1 1GR       0.144000
     39 H14         -3.9370     2.5140    -5.7630 ha         1 1GR       0.156000
     40 H15         -4.6790     5.8410    -4.8740 ho         1 1GR       0.422000
     41 H16         -2.8100     6.0790    -3.5630 ha         1 1GR       0.138000
     42 H17         -0.9020     5.8920    -2.3700 ho         1 1GR       0.420000
@<TRIPOS>BOND
     1     1     2 1   
     2     1    26 1   
     3     1    27 1   
     4     1    28 1   
     5     2     3 1   
     6     2     4 1   
     7     2    29 1   
     8     3    30 1   
     9     3    31 1   
    10     3    32 1   
    11     4     5 1   
    12     4    33 1   
    13     4    34 1   
    14     5     6 1   
    15     5     7 1   
    16     6    17 2   
    17     7     8 ar  
    18     7    16 ar  
    19     8     9 1   
    20     8    13 ar  
    21     9    10 1   
    22     9    11 1   
    23     9    12 1   
    24    13    14 ar  
    25    13    35 1   
    26    14    15 ar  
    27    14    36 1   
    28    15    16 ar  
    29    15    37 1   
    30    16    17 1   
    31    17    18 1   
    32    18    19 ar  
    33    18    24 ar  
    34    19    20 ar  
    35    19    38 1   
    36    20    21 ar  
    37    20    39 1   
    38    21    22 1   
    39    21    23 ar  
    40    22    40 1   
    41    23    24 ar  
    42    23    41 1   
    43    24    25 1   
    44    25    42 1   
@<TRIPOS>SUBSTRUCTURE
     1 1GR         1 TEMP              0 ****  ****    0 ROOT
