@<TRIPOS>MOLECULE
molecule
   42    44     1     0     0
SMALL
bcc


@<TRIPOS>ATOM
      1 C01          0.0000     0.0000     0.0000 c3         1 1GS      -0.088100
      2 C02          1.5300     0.0000     0.0000 c3         1 1GS      -0.097700
      3 C03          2.0400     0.0000     1.4420 c3         1 1GS      -0.088100
      4 C04          2.0410    -1.2490    -0.7220 c3         1 1GS       0.064300
      5 N01          1.6640    -1.1830    -2.1360 na         1 1GS       0.159800
      6 N02          0.4460    -1.6240    -2.6650 nc         1 1GS      -0.264400
      7 C05          0.4360    -1.4190    -3.9700 ca         1 1GS      -0.012000
      8 C06         -0.4970    -1.6550    -5.0020 ca         1 1GS      -0.169300
      9 C07         -1.8320    -2.2820    -4.6880 c3         1 1GS       0.680200
     10 F01         -1.6320    -3.5440    -4.1200 f          1 1GS      -0.224300
     11 F02         -2.5280    -1.4690    -3.7860 f          1 1GS      -0.224300
     12 F03         -2.5750    -2.4120    -5.8670 f          1 1GS      -0.224300
     13 C08         -0.1860    -1.3150    -6.2780 ca         1 1GS      -0.036000
     14 C09          1.0400    -0.7330    -6.6050 ca         1 1GS      -0.189000
     15 C10          1.9830    -0.4780    -5.6610 ca         1 1GS      -0.019000
     16 C11          1.7260    -0.8050    -4.3180 ca         1 1GS      -0.184000
     17 C12          2.4380    -0.6840    -3.1220 cc         1 1GS       0.016700
     18 C13          3.7900    -0.1170    -2.9660 ca         1 1GS      -0.096800
     19 C14          4.9070    -0.9550    -2.9730 ca         1 1GS      -0.060000
     20 C15          6.1700    -0.4220    -2.8270 ca         1 1GS      -0.194000
     21 C16          6.3350     0.9500    -2.6750 ca         1 1GS       0.156100
     22 O01          7.5820     1.4690    -2.5270 oh         1 1GS      -0.519100
     23 C17          5.2320     1.7910    -2.6670 ca         1 1GS      -0.243000
     24 C18          3.9600     1.2670    -2.8190 ca         1 1GS       0.170100
     25 O02          2.8790     2.0890    -2.8120 oh         1 1GS      -0.486100
     26 H1          -0.3610    -1.0170     0.0890 hc         1 1GS       0.041033
     27 H2          -0.3610     0.5860     0.8370 hc         1 1GS       0.041033
     28 H3          -0.3610     0.4320    -0.9260 hc         1 1GS       0.041033
     29 H4           1.8910     0.8850    -0.5100 hc         1 1GS       0.067700
     30 H5           1.7400     0.9190     1.9310 hc         1 1GS       0.041033
     31 H6           3.1200    -0.0740     1.4430 hc         1 1GS       0.041033
     32 H7           1.6190    -0.8450     1.9740 hc         1 1GS       0.041033
     33 H8           3.1190    -1.2990    -0.6370 h1         1 1GS       0.072200
     34 H9           1.6010    -2.1310    -0.2720 h1         1 1GS       0.072200
     35 H10         -0.9080    -1.5000    -7.0650 ha         1 1GS       0.147000
     36 H11          1.2440    -0.4780    -7.6380 ha         1 1GS       0.133000
     37 H12          2.9260    -0.0260    -5.9420 ha         1 1GS       0.129000
     38 H13          4.7820    -2.0250    -3.0910 ha         1 1GS       0.150000
     39 H14          7.0350    -1.0730    -2.8320 ha         1 1GS       0.148000
     40 H15          7.9760     1.5880    -3.3750 ho         1 1GS       0.427000
     41 H16          5.3670     2.8590    -2.5510 ha         1 1GS       0.149000
     42 H17          3.1370     2.9500    -3.0970 ho         1 1GS       0.428000
@<TRIPOS>BOND
     1    22    21 1   
     2    21    23 ar  
     3    21    20 ar  
     4    23    24 ar  
     5    20    19 ar  
     6    24    25 1   
     7    24    18 ar  
     8    19    18 ar  
     9    18    17 1   
    10     3     2 1   
    11    17     5 1   
    12    17    16 2   
    13     4     5 1   
    14     4     2 1   
    15     1     2 1   
    16    15    16 ar  
    17    15    14 ar  
    18     5     6 1   
    19    16     7 ar  
    20    14    13 ar  
    21     6     7 2   
    22     7     8 ar  
    23    13     8 ar  
    24     8     9 1   
    25    11     9 1   
    26     9    12 1   
    27     9    10 1   
    28     1    26 1   
    29     1    27 1   
    30     1    28 1   
    31     2    29 1   
    32     3    30 1   
    33     3    31 1   
    34     3    32 1   
    35     4    33 1   
    36     4    34 1   
    37    13    35 1   
    38    14    36 1   
    39    15    37 1   
    40    19    38 1   
    41    20    39 1   
    42    22    40 1   
    43    23    41 1   
    44    25    42 1   
@<TRIPOS>SUBSTRUCTURE
     1 1GS         1 TEMP              0 ****  ****    0 ROOT
