@<TRIPOS>MOLECULE
1GS
   42    44     1     0     0
SMALL
bcc


@<TRIPOS>ATOM
      1 C01         -0.0450     0.0750     0.0280 c3         1 1GS      -0.094100
      2 C02          1.4690    -0.0020     0.0550 c3         1 1GS      -0.072700
      3 C03          1.9800    -0.0120     1.4790 c3         1 1GS      -0.094100
      4 C04          2.0180     1.1960    -0.7300 c3         1 1GS       0.047300
      5 N01          3.4700     1.2330    -0.8860 na         1 1GS       0.195800
      6 N02          4.1880     0.1420    -1.1660 nc         1 1GS      -0.261400
      7 C05          5.4920     0.5580    -1.2950 ca         1 1GS      -0.056000
      8 C06          6.6800    -0.1710    -1.5830 ca         1 1GS      -0.138300
      9 C07          6.5940    -1.6720    -1.8050 c3         1 1GS       0.697200
     10 F01          7.7980    -2.2800    -2.0790 f          1 1GS      -0.237967
     11 F02          6.1060    -2.3820    -0.7350 f          1 1GS      -0.237967
     12 F03          5.7930    -2.0490    -2.8560 f          1 1GS      -0.237967
     13 C08          7.8720     0.5060    -1.6510 ca         1 1GS      -0.056000
     14 C09          7.9440     1.9120    -1.4410 ca         1 1GS      -0.169000
     15 C10          6.8230     2.6550    -1.1620 ca         1 1GS      -0.040000
     16 C11          5.5790     2.0020    -1.0850 ca         1 1GS      -0.132000
     17 C12          4.2370     2.4010    -0.8210 cc         1 1GS      -0.027300
     18 C13          3.7520     3.7430    -0.5650 ca         1 1GS      -0.109800
     19 C14          3.9460     4.7350    -1.5350 ca         1 1GS      -0.035000
     20 C15          3.5510     6.0490    -1.3150 ca         1 1GS      -0.251000
     21 C16          2.9480     6.3910    -0.0940 ca         1 1GS       0.177100
     22 O01          2.5350     7.6670     0.1970 oh         1 1GS      -0.491100
     23 C17          2.7360     5.4270     0.9000 ca         1 1GS      -0.251000
     24 C18          3.1390     4.1080     0.6540 ca         1 1GS       0.177100
     25 O02          2.9380     3.1160     1.5820 oh         1 1GS      -0.489100
     26 H1          -0.4030     1.0050     0.5330 hc         1 1GS       0.040033
     27 H2          -0.4780    -0.8050     0.5610 hc         1 1GS       0.040033
     28 H3          -0.4210     0.0730    -1.0230 hc         1 1GS       0.040033
     29 H4           1.7870    -0.9570    -0.4520 hc         1 1GS       0.079700
     30 H5           1.4250    -0.7720     2.0800 hc         1 1GS       0.040033
     31 H6           1.8430     0.9900     1.9540 hc         1 1GS       0.040033
     32 H7           3.0660    -0.2690     1.5050 hc         1 1GS       0.040033
     33 H8           1.7200     2.1480    -0.2050 h1         1 1GS       0.069200
     34 H9           1.5700     1.1900    -1.7660 h1         1 1GS       0.069200
     35 H10          8.8040    -0.0400    -1.8730 ha         1 1GS       0.149000
     36 H11          8.9300     2.3940    -1.5060 ha         1 1GS       0.138000
     37 H12          6.8790     3.7410    -0.9970 ha         1 1GS       0.138000
     38 H13          4.4260     4.4620    -2.4890 ha         1 1GS       0.150000
     39 H14          3.7100     6.8140    -2.0880 ha         1 1GS       0.143000
     40 H15          2.7400     8.2310    -0.5640 ho         1 1GS       0.427000
     41 H16          2.2660     5.7130     1.8510 ha         1 1GS       0.158000
     42 H17          2.6100     3.5250     2.3980 ho         1 1GS       0.428000
@<TRIPOS>BOND
     1     1     2 1   
     2     1    26 1   
     3     1    27 1   
     4     1    28 1   
     5     2     3 1   
     6     2     4 1   
     7     2    29 1   
     8     3    30 1   
     9     3    31 1   
    10     3    32 1   
    11     4     5 1   
    12     4    33 1   
    13     4    34 1   
    14     5     6 1   
    15     5    17 1   
    16     6     7 2   
    17     7     8 ar  
    18     7    16 ar  
    19     8     9 1   
    20     8    13 ar  
    21     9    10 1   
    22     9    11 1   
    23     9    12 1   
    24    13    14 ar  
    25    13    35 1   
    26    14    15 ar  
    27    14    36 1   
    28    15    16 ar  
    29    15    37 1   
    30    16    17 2   
    31    17    18 1   
    32    18    19 ar  
    33    18    24 ar  
    34    19    20 ar  
    35    19    38 1   
    36    20    21 ar  
    37    20    39 1   
    38    21    22 1   
    39    21    23 ar  
    40    22    40 1   
    41    23    24 ar  
    42    23    41 1   
    43    24    25 1   
    44    25    42 1   
@<TRIPOS>SUBSTRUCTURE
     1 1GS         1 TEMP              0 ****  ****    0 ROOT
