@<TRIPOS>MOLECULE
1GS
   42    44     1     0     0
SMALL
bcc


@<TRIPOS>ATOM
      1 C01        -0.1360   -0.0120    0.1660 c3        1 1GS     -0.094100
      2 C02         1.3600    0.1140   -0.0100 c3        1 1GS     -0.083700
      3 C03         2.0510    0.1550    1.3390 c3        1 1GS     -0.094100
      4 C04         1.9410   -1.0640   -0.8070 c3        1 1GS      0.045300
      5 N01         1.6100   -1.0690   -2.2290 na        1 1GS      0.188800
      6 N02         0.4460   -1.5340   -2.6940 nc        1 1GS     -0.259400
      7 C05         0.4910   -1.3930   -4.0610 ca        1 1GS     -0.056000
      8 C06        -0.4630   -1.7210   -5.0640 ca        1 1GS     -0.139300
      9 C07        -1.7890   -2.3400   -4.6520 c3        1 1GS      0.697200
     10 F01        -1.6790   -3.5400   -3.9940 f         1 1GS     -0.238300
     11 F02        -2.5490   -1.5610   -3.8150 f         1 1GS     -0.238300
     12 F03        -2.6390   -2.6190   -5.6990 f         1 1GS     -0.238300
     13 C08        -0.1570   -1.4680   -6.3770 ca        1 1GS     -0.055000
     14 C09         1.0870   -0.8870   -6.7540 ca        1 1GS     -0.170000
     15 C10         2.0380   -0.5560   -5.8210 ca        1 1GS     -0.038000
     16 C11         1.7670   -0.8010   -4.4610 ca        1 1GS     -0.128000
     17 C12         2.4630   -0.6050   -3.2360 cc        1 1GS     -0.025300
     18 C13         3.7950   -0.0660   -3.0360 ca        1 1GS     -0.116800
     19 C14         4.9140   -0.8460   -3.3530 ca        1 1GS     -0.033000
     20 C15         6.2040   -0.3460   -3.2210 ca        1 1GS     -0.254000
     21 C16         6.3870    0.9690   -2.7620 ca        1 1GS      0.179100
     22 O01         7.6290    1.5330   -2.6070 oh        1 1GS     -0.491100
     23 C17         5.2920    1.7790   -2.4330 ca        1 1GS     -0.255000
     24 C18         4.0020    1.2520   -2.5710 ca        1 1GS      0.184100
     25 O02         2.8890    1.9900   -2.2530 oh        1 1GS     -0.484100
     26 H1         -0.5080    0.7930    0.8460 hc        1 1GS      0.041200
     27 H2         -0.6640    0.0870   -0.8130 hc        1 1GS      0.041200
     28 H3         -0.4000   -1.0010    0.6120 hc        1 1GS      0.041200
     29 H4          1.5850    1.0730   -0.5600 hc        1 1GS      0.073700
     30 H5          1.6530    1.0070    1.9420 hc        1 1GS      0.041200
     31 H6          3.1520    0.2910    1.2170 hc        1 1GS      0.041200
     32 H7          1.8690   -0.7910    1.9040 hc        1 1GS      0.041200
     33 H8          1.5760   -2.0300   -0.3530 h1        1 1GS      0.073200
     34 H9          3.0660   -1.0320   -0.7420 h1        1 1GS      0.073200
     35 H10        -0.8820   -1.7130   -7.1700 ha        1 1GS      0.149000
     36 H11         1.2690   -0.7060   -7.8240 ha        1 1GS      0.138000
     37 H12         2.9980   -0.1040   -6.1130 ha        1 1GS      0.139000
     38 H13         4.7640   -1.8750   -3.7190 ha        1 1GS      0.150000
     39 H14         7.0720   -0.9700   -3.4740 ha        1 1GS      0.143000
     40 H15         8.2930    0.8780   -2.8720 ho        1 1GS      0.427000
     41 H16         5.4560    2.8050   -2.0780 ha        1 1GS      0.158000
     42 H17         3.1760    2.8870   -2.0230 ho        1 1GS      0.427000
@<TRIPOS>BOND
     1    1    2 1   
     2    1   26 1   
     3    1   27 1   
     4    1   28 1   
     5    2    3 1   
     6    2    4 1   
     7    2   29 1   
     8    3   30 1   
     9    3   31 1   
    10    3   32 1   
    11    4    5 1   
    12    4   33 1   
    13    4   34 1   
    14    5    6 1   
    15    5   17 1   
    16    6    7 2   
    17    7    8 ar  
    18    7   16 ar  
    19    8    9 1   
    20    8   13 ar  
    21    9   10 1   
    22    9   11 1   
    23    9   12 1   
    24   13   14 ar  
    25   13   35 1   
    26   14   15 ar  
    27   14   36 1   
    28   15   16 ar  
    29   15   37 1   
    30   16   17 2   
    31   17   18 1   
    32   18   19 ar  
    33   18   24 ar  
    34   19   20 ar  
    35   19   38 1   
    36   20   21 ar  
    37   20   39 1   
    38   21   22 1   
    39   21   23 ar  
    40   22   40 1   
    41   23   24 ar  
    42   23   41 1   
    43   24   25 1   
    44   25   42 1   
@<TRIPOS>SUBSTRUCTURE
     1 1GS         1 TEMP              0 ****  ****    0 ROOT
