@<TRIPOS>MOLECULE
1GT
   40    42     1     0     0
SMALL
bcc


@<TRIPOS>ATOM
      1 C01          0.3950    -0.0270    -0.0900 c2         1 1GT      -0.211000
      2 C02          1.5280    -0.4670     0.4520 c2         1 1GT      -0.174200
      3 C03          2.1870     0.1770     1.6160 c3         1 1GT      -0.053200
      4 C04          3.6860     0.3030     1.3460 c3         1 1GT       0.057300
      5 N05          4.4480     0.9730     2.3890 na         1 1GT       0.095900
      6 N06          3.9680     1.1520     3.6360 nc         1 1GT      -0.473100
      7 C07          4.9310     1.7180     4.4010 cd         1 1GT       0.412500
      8 C08          4.7860     2.0850     5.7980 ca         1 1GT      -0.161900
      9 C09          5.1600     3.3700     6.2160 ca         1 1GT      -0.050000
     10 C10          5.0370     3.7690     7.5400 ca         1 1GT      -0.196000
     11 C11          4.5230     2.8590     8.4810 ca         1 1GT       0.173100
     12 O12          4.4210     3.3080     9.7750 oh         1 1GT      -0.491100
     13 C13          4.1430     1.5670     8.1030 ca         1 1GT      -0.310000
     14 C14          4.2780     1.1860     6.7590 ca         1 1GT       0.194100
     15 O15          3.9430    -0.0760     6.3380 oh         1 1GT      -0.475100
     16 C16          6.1360     1.9170     3.5980 ca         1 1GT      -0.212900
     17 C17          7.3990     2.4360     3.8500 ca         1 1GT      -0.030000
     18 C18          8.3250     2.4610     2.8150 ca         1 1GT      -0.176000
     19 C19          7.9940     1.9730     1.5430 ca         1 1GT      -0.050000
     20 C20          6.7390     1.4430     1.2540 ca         1 1GT      -0.187300
     21 C21          6.4690     0.9420    -0.1550 c3         1 1GT       0.694200
     22 F22          6.0030    -0.3490    -0.2330 f          1 1GT      -0.239633
     23 F23          7.5670     0.9340    -0.9830 f          1 1GT      -0.239633
     24 F24          5.5430     1.6760    -0.8590 f          1 1GT      -0.239633
     25 C25          5.7820     1.4050     2.2860 ca         1 1GT      -0.000200
     26 H1          -0.0850    -0.5370    -0.9350 ha         1 1GT       0.114000
     27 H2          -0.1310     0.8670     0.2710 ha         1 1GT       0.114000
     28 H4           2.0340    -1.3670     0.0640 ha         1 1GT       0.123000
     29 H5           1.7430     1.1880     1.8190 hc         1 1GT       0.069200
     30 H6           4.1260    -0.7270     1.2040 h1         1 1GT       0.065700
     31 H7           3.8400     0.8910     0.3950 h1         1 1GT       0.065700
     32 H8           5.5560     4.0780     5.4700 ha         1 1GT       0.145000
     33 H9           5.3270     4.7770     7.8640 ha         1 1GT       0.156000
     34 H10          4.0480     2.5950    10.3140 ho         1 1GT       0.422000
     35 H11          3.7450     0.8600     8.8430 ha         1 1GT       0.138000
     36 H12          3.5830    -0.5610     7.0970 ho         1 1GT       0.420000
     37 H13          7.6510     2.8170     4.8510 ha         1 1GT       0.147000
     38 H14          9.3330     2.8660     2.9860 ha         1 1GT       0.143000
     39 H15          8.7570     2.0090     0.7460 ha         1 1GT       0.152000
     40 H3           2.0110    -0.4550     2.5290 hc         1 1GT       0.069200
@<TRIPOS>BOND
     1     1     2 2   
     2     1    26 1   
     3     1    27 1   
     4     2     3 1   
     5     2    28 1   
     6     3     4 1   
     7     3    29 1   
     8     3    40 1   
     9     4     5 1   
    10     4    30 1   
    11     4    31 1   
    12     5     6 1   
    13     5    25 1   
    14     6     7 2   
    15     7     8 1   
    16     7    16 1   
    17     8     9 ar  
    18     8    14 ar  
    19     9    10 ar  
    20     9    32 1   
    21    10    11 ar  
    22    10    33 1   
    23    11    12 1   
    24    11    13 ar  
    25    12    34 1   
    26    13    14 ar  
    27    13    35 1   
    28    14    15 1   
    29    15    36 1   
    30    16    17 ar  
    31    16    25 ar  
    32    17    18 ar  
    33    17    37 1   
    34    18    19 ar  
    35    18    38 1   
    36    19    20 ar  
    37    19    39 1   
    38    20    21 1   
    39    20    25 ar  
    40    21    22 1   
    41    21    23 1   
    42    21    24 1   
@<TRIPOS>SUBSTRUCTURE
     1 1GT         1 TEMP              0 ****  ****    0 ROOT
