@<TRIPOS>MOLECULE
molecule
   40    42     1     0     0
SMALL
bcc


@<TRIPOS>ATOM
      1 C01          0.0000     0.0000     0.0000 c2         1 1GT      -0.215000
      2 C02          1.3100     0.0000     0.0000 c2         1 1GT      -0.174200
      3 C03          2.0630     0.0000     1.3060 c3         1 1GT      -0.074200
      4 C04          3.0360    -1.1810     1.3330 c3         1 1GT       0.063300
      5 N05          3.7920    -1.1600     2.5870 na         1 1GT       0.070900
      6 N06          3.3450    -1.6700     3.8110 nc         1 1GT      -0.464100
      7 C07          4.2620    -1.4950     4.7310 cd         1 1GT       0.431500
      8 C08          4.1620    -1.8950     6.1540 ca         1 1GT      -0.133900
      9 C09          5.2250    -2.5500     6.7720 ca         1 1GT      -0.063000
     10 C10          5.1300    -2.9210     8.0970 ca         1 1GT      -0.193000
     11 C11          3.9760    -2.6420     8.8180 ca         1 1GT       0.155100
     12 O12          3.8890    -3.0100    10.1230 oh         1 1GT      -0.522100
     13 C13          2.9140    -1.9890     8.2110 ca         1 1GT      -0.253000
     14 C14          3.0020    -1.6090     6.8840 ca         1 1GT       0.178100
     15 O15          1.9630    -0.9700     6.2870 oh         1 1GT      -0.476100
     16 C16          5.4030    -0.8250     4.0960 ca         1 1GT      -0.244900
     17 C17          6.6460    -0.3880     4.5550 ca         1 1GT      -0.024000
     18 C18          7.5140     0.2180     3.6920 ca         1 1GT      -0.185000
     19 C19          7.1720     0.4030     2.3590 ca         1 1GT      -0.033000
     20 C20          5.9510    -0.0200     1.8830 ca         1 1GT      -0.216300
     21 C21          5.5910     0.1850     0.4350 c3         1 1GT       0.674200
     22 F22          4.3810     0.8820     0.3490 f          1 1GT      -0.222967
     23 F23          6.5980     0.9230    -0.1960 f          1 1GT      -0.222967
     24 F24          5.4600    -1.0560    -0.1940 f          1 1GT      -0.222967
     25 C25          5.0530    -0.6450     2.7450 ca         1 1GT       0.019800
     26 H1          -0.5420     0.0000    -0.9380 ha         1 1GT       0.113500
     27 H2          -0.5420     0.0000     0.9380 ha         1 1GT       0.113500
     28 H4           1.8520     0.0000    -0.9380 ha         1 1GT       0.125000
     29 H5           2.6170     0.9260     1.4030 hc         1 1GT       0.066700
     30 H6           2.4800    -2.1080     1.2610 h1         1 1GT       0.075200
     31 H7           3.7200    -1.1050     0.4970 h1         1 1GT       0.075200
     32 H8           6.1260    -2.7680     6.2110 ha         1 1GT       0.145000
     33 H9           5.9570    -3.4300     8.5770 ha         1 1GT       0.146000
     34 H10          3.5180    -3.8750    10.1820 ho         1 1GT       0.425000
     35 H11          2.0170    -1.7720     8.7780 ha         1 1GT       0.145000
     36 H12          1.3590    -0.6690     6.9460 ho         1 1GT       0.423000
     37 H13          6.9220    -0.5280     5.5930 ha         1 1GT       0.139000
     38 H14          8.4780     0.5580     4.0510 ha         1 1GT       0.140000
     39 H15          7.8710     0.8860     1.6880 ha         1 1GT       0.150000
     40 H3           1.3630    -0.0900     2.1270 hc         1 1GT       0.066700
@<TRIPOS>BOND
     1    12    11 1   
     2    11    10 ar  
     3    11    13 ar  
     4    10     9 ar  
     5    13    14 ar  
     6     9     8 ar  
     7    14     8 ar  
     8    14    15 1   
     9     8     7 1   
    10     7    16 1   
    11     7     6 2   
    12    17    16 ar  
    13    17    18 ar  
    14    16    25 ar  
    15     6     5 1   
    16    18    19 ar  
    17    25     5 1   
    18    25    20 ar  
    19     5     4 1   
    20    19    20 ar  
    21     3     4 1   
    22     3     2 1   
    23    20    21 1   
    24     1     2 2   
    25    24    21 1   
    26    21    23 1   
    27    21    22 1   
    28     1    26 1   
    29     1    27 1   
    30     2    28 1   
    31     3    29 1   
    32     4    30 1   
    33     4    31 1   
    34     9    32 1   
    35    10    33 1   
    36    12    34 1   
    37    13    35 1   
    38    15    36 1   
    39    17    37 1   
    40    18    38 1   
    41    19    39 1   
    42     3    40 1   
@<TRIPOS>SUBSTRUCTURE
     1 1GT         1 TEMP              0 ****  ****    0 ROOT
