@<TRIPOS>MOLECULE
1GT
   40    42     1     0     0
SMALL
bcc


@<TRIPOS>ATOM
      1 C01        -0.1740    0.0930    0.3420 c2        1 1GT     -0.213000
      2 C02         1.1480   -0.0280    0.2520 c2        1 1GT     -0.169200
      3 C03         2.0610    0.0030    1.4210 c3        1 1GT     -0.077200
      4 C04         2.9920   -1.2120    1.3800 c3        1 1GT      0.053300
      5 N05         3.9010   -1.3180    2.5130 na        1 1GT      0.098900
      6 N06         3.4270   -1.7450    3.7080 nc        1 1GT     -0.478100
      7 C07         4.3320   -1.4700    4.6700 cd        1 1GT      0.420500
      8 C08         4.2060   -1.8280    6.0720 ca        1 1GT     -0.164900
      9 C09         5.2610   -2.4930    6.7130 ca        1 1GT     -0.049000
     10 C10         5.1840   -2.8610    8.0490 ca        1 1GT     -0.196000
     11 C11         4.0170   -2.5570    8.7730 ca        1 1GT      0.174100
     12 O12         3.9950   -2.9470   10.0900 oh        1 1GT     -0.491100
     13 C13         2.9460   -1.8900    8.1700 ca        1 1GT     -0.310000
     14 C14         3.0480   -1.5280    6.8180 ca        1 1GT      0.195100
     15 O15         2.0380   -0.8490    6.1830 oh        1 1GT     -0.476100
     16 C16         5.4740   -0.7700    4.0800 ca        1 1GT     -0.214900
     17 C17         6.6630   -0.2670    4.5860 ca        1 1GT     -0.032000
     18 C18         7.5500    0.3460    3.7080 ca        1 1GT     -0.174000
     19 C19         7.2550    0.4390    2.3430 ca        1 1GT     -0.053000
     20 C20         6.0710   -0.0630    1.8000 ca        1 1GT     -0.185300
     21 C21         5.8660    0.0610    0.2990 c3        1 1GT      0.693200
     22 F22         4.7840    0.8220   -0.0770 f         1 1GT     -0.239300
     23 F23         6.9110    0.6420   -0.3800 f         1 1GT     -0.239300
     24 F24         5.6860   -1.1330   -0.3590 f         1 1GT     -0.239300
     25 C25         5.1440   -0.6650    2.6690 ca        1 1GT      0.001800
     26 H1         -0.6980    0.2060    1.3010 ha        1 1GT      0.113500
     27 H2         -0.8230    0.0890   -0.5430 ha        1 1GT      0.113500
     28 H4          1.6470   -0.1400   -0.7260 ha        1 1GT      0.124000
     29 H5          1.4830    0.0140    2.3820 hc        1 1GT      0.065200
     30 H6          2.3670   -2.1520    1.3550 h1        1 1GT      0.076200
     31 H7          3.6170   -1.1830    0.4450 h1        1 1GT      0.076200
     32 H8          6.1690   -2.7330    6.1350 ha        1 1GT      0.145000
     33 H9          6.0100   -3.3860    8.5470 ha        1 1GT      0.156000
     34 H10         3.1410   -2.6910   10.4670 ho        1 1GT      0.422000
     35 H11         2.0380   -1.6540    8.7410 ha        1 1GT      0.138000
     36 H12         1.3000   -0.7580    6.8050 ho        1 1GT      0.420000
     37 H13         6.8910   -0.3560    5.6590 ha        1 1GT      0.148000
     38 H14         8.4970    0.7620    4.0820 ha        1 1GT      0.144000
     39 H15         7.9870    0.9240    1.6750 ha        1 1GT      0.152000
     40 H3          2.6720    0.9470    1.3780 hc        1 1GT      0.065200
@<TRIPOS>BOND
     1    1    2 2   
     2    1   26 1   
     3    1   27 1   
     4    2    3 1   
     5    2   28 1   
     6    3    4 1   
     7    3   29 1   
     8    3   40 1   
     9    4    5 1   
    10    4   30 1   
    11    4   31 1   
    12    5    6 1   
    13    5   25 1   
    14    6    7 2   
    15    7    8 1   
    16    7   16 1   
    17    8    9 ar  
    18    8   14 ar  
    19    9   10 ar  
    20    9   32 1   
    21   10   11 ar  
    22   10   33 1   
    23   11   12 1   
    24   11   13 ar  
    25   12   34 1   
    26   13   14 ar  
    27   13   35 1   
    28   14   15 1   
    29   15   36 1   
    30   16   17 ar  
    31   16   25 ar  
    32   17   18 ar  
    33   17   37 1   
    34   18   19 ar  
    35   18   38 1   
    36   19   20 ar  
    37   19   39 1   
    38   20   21 1   
    39   20   25 ar  
    40   21   22 1   
    41   21   23 1   
    42   21   24 1   
@<TRIPOS>SUBSTRUCTURE
     1 1GT         1 TEMP              0 ****  ****    0 ROOT
