@<TRIPOS>MOLECULE
molecule
   40    42     1     0     0
SMALL
bcc


@<TRIPOS>ATOM
      1 C01          0.0000     0.0000     0.0000 c2         1 1GU      -0.202000
      2 C02          1.3100     0.0000     0.0000 c2         1 1GU      -0.187200
      3 C03          2.0640     0.0000     1.3050 c3         1 1GU      -0.069200
      4 C04          3.0350    -1.1820     1.3330 c3         1 1GU       0.066300
      5 N05          3.7680    -1.1820     2.6010 na         1 1GU       0.156800
      6 N06          3.3580    -1.8380     3.7670 nc         1 1GU      -0.264400
      7 C07          4.2490    -1.6330     4.7210 ca         1 1GU      -0.010000
      8 C08          4.3650    -2.0350     6.0690 ca         1 1GU      -0.170300
      9 C09          3.3030    -2.8990     6.6970 c3         1 1GU       0.681200
     10 F10          2.0730    -2.2340     6.6510 f          1 1GU      -0.224300
     11 F11          3.2070    -4.1050     5.9950 f          1 1GU      -0.224300
     12 F12          3.6410    -3.1600     8.0300 f          1 1GU      -0.224300
     13 C13          5.4400    -1.6380     6.7960 ca         1 1GU      -0.035000
     14 C14          6.4430    -0.8380     6.2470 ca         1 1GU      -0.188000
     15 C15          6.3930    -0.4150     4.9560 ca         1 1GU      -0.020000
     16 C16          5.3070    -0.7900     4.1460 ca         1 1GU      -0.184000
     17 C17          4.9410    -0.5530     2.8180 cc         1 1GU       0.016700
     18 C18          5.7000     0.2420     1.8340 ca         1 1GU      -0.094800
     19 C19          5.4650     1.6140     1.7100 ca         1 1GU      -0.063000
     20 C20          6.1760     2.3530     0.7900 ca         1 1GU      -0.180000
     21 C21          7.1270     1.7380    -0.0160 ca         1 1GU       0.152100
     22 O22          7.8200     2.4730    -0.9250 oh         1 1GU      -0.519100
     23 C23          7.3670     0.3760     0.0990 ca         1 1GU      -0.241000
     24 C24          6.6630    -0.3740     1.0240 ca         1 1GU       0.163100
     25 O25          6.8980    -1.7080     1.1380 oh         1 1GU      -0.494100
     26 H1          -0.5420     0.0000    -0.9380 ha         1 1GU       0.117500
     27 H2          -0.5420     0.0000     0.9380 ha         1 1GU       0.117500
     28 H4           1.8510     0.0000    -0.9380 ha         1 1GU       0.123000
     29 H6           1.3630    -0.0890     2.1270 hc         1 1GU       0.062700
     30 H7           2.6190     0.9250     1.4020 hc         1 1GU       0.062700
     31 H8           3.7350    -1.0940     0.5110 h1         1 1GU       0.077200
     32 H9           2.4800    -2.1080     1.2360 h1         1 1GU       0.077200
     33 H10          5.5220    -1.9510     7.8300 ha         1 1GU       0.147000
     34 H11          7.2830    -0.5460     6.8650 ha         1 1GU       0.134000
     35 H12          7.1850     0.2050     4.5540 ha         1 1GU       0.132000
     36 H13          4.7240     2.0960     2.3370 ha         1 1GU       0.150000
     37 H14          5.9930     3.4160     0.6950 ha         1 1GU       0.150000
     38 H15          7.4280     2.3700    -1.7760 ho         1 1GU       0.426000
     39 H16          8.1100    -0.0980    -0.5300 ha         1 1GU       0.149000
     40 H17          7.8210    -1.8730     1.0490 ho         1 1GU       0.430000
@<TRIPOS>BOND
     1    22    21 1
     2    21    23 ar
     3    21    20 ar
     4    23    24 ar
     5    20    19 ar
     6    24    25 1
     7    24    18 ar
     8    19    18 ar
     9    18    17 1
    10    17     5 1
    11    17    16 2
    12     4     3 1
    13     4     5 1
    14     3     2 1
    15     2     1 2
    16     5     6 1
    17    15    16 ar
    18    15    14 ar
    19    16     7 ar
    20    14    13 ar
    21     6     7 2
    22     7     8 ar
    23    13     8 ar
    24     8     9 1
    25    10     9 1
    26     9    12 1
    27     9    11 1
    28     1    26 1
    29     1    27 1
    30     2    28 1
    31     3    29 1
    32     3    30 1
    33     4    31 1
    34     4    32 1
    35    13    33 1
    36    14    34 1
    37    15    35 1
    38    19    36 1
    39    20    37 1
    40    22    38 1
    41    23    39 1
    42    25    40 1
@<TRIPOS>SUBSTRUCTURE
     1 1GU         1 TEMP              0 ****  ****    0 ROOT
