@<TRIPOS>MOLECULE
1GU
   40    42     1     0     0
SMALL
bcc


@<TRIPOS>ATOM
      1 C01         0.0520   -1.1690   -0.3540 c2        1 1GU     -0.207000
      2 C02         1.0880   -0.4750    0.1110 c2        1 1GU     -0.178200
      3 C03         1.6510   -0.6510    1.4720 c3        1 1GU     -0.062200
      4 C04         3.1670   -0.8230    1.3820 c3        1 1GU      0.052300
      5 N05         3.8530   -0.8510    2.6710 na        1 1GU      0.192800
      6 N06         3.3330   -1.4400    3.7510 nc        1 1GU     -0.261400
      7 C07         4.2530   -1.2840    4.7600 ca        1 1GU     -0.054000
      8 C08         4.2290   -1.7070    6.1180 ca        1 1GU     -0.138300
      9 C09         3.0180   -2.4670    6.6380 c3        1 1GU      0.697200
     10 F10         1.8330   -1.7770    6.5540 f         1 1GU     -0.238300
     11 F11         2.7680   -3.6530    5.9920 f         1 1GU     -0.238300
     12 F12         3.0950   -2.8260    7.9640 f         1 1GU     -0.238300
     13 C13         5.3030   -1.4160    6.9210 ca        1 1GU     -0.056000
     14 C14         6.4320   -0.7050    6.4270 ca        1 1GU     -0.168000
     15 C15         6.4970   -0.2760    5.1240 ca        1 1GU     -0.042000
     16 C16         5.4160   -0.5500    4.2660 ca        1 1GU     -0.133000
     17 C17         5.1150   -0.2910    2.8970 cc        1 1GU     -0.027300
     18 C18         5.9340    0.4150    1.9340 ca        1 1GU     -0.104800
     19 C19         6.4740    1.6630    2.2890 ca        1 1GU     -0.044000
     20 C20         7.3080    2.3650    1.4320 ca        1 1GU     -0.191000
     21 C21         7.6240    1.8100    0.1780 ca        1 1GU      0.176100
     22 O22         8.4570    2.5480   -0.6250 oh        1 1GU     -0.487100
     23 C23         7.1070    0.5700   -0.2120 ca        1 1GU     -0.304000
     24 C24         6.2620   -0.1190    0.6710 ca        1 1GU      0.178100
     25 O25         5.7120   -1.3310    0.3290 oh        1 1GU     -0.496100
     26 H1         -0.4560   -1.9460    0.2330 ha        1 1GU      0.116000
     27 H2         -0.3620   -1.0000   -1.3570 ha        1 1GU      0.116000
     28 H4          1.5760    0.3000   -0.5030 ha        1 1GU      0.118000
     29 H6          1.4010    0.2550    2.0900 hc        1 1GU      0.072700
     30 H7          1.1940   -1.5390    1.9850 hc        1 1GU      0.072700
     31 H8          3.4090   -1.7880    0.8490 h1        1 1GU      0.073200
     32 H9          3.6160    0.0270    0.7930 h1        1 1GU      0.073200
     33 H10         5.3050   -1.7360    7.9770 ha        1 1GU      0.149000
     34 H11         7.2620   -0.5070    7.1210 ha        1 1GU      0.138000
     35 H12         7.3700    0.2720    4.7400 ha        1 1GU      0.138000
     36 H13         6.2250    2.0860    3.2760 ha        1 1GU      0.152000
     37 H14         7.7260    3.3410    1.7120 ha        1 1GU      0.160000
     38 H15         8.5990    2.0570   -1.4490 ho        1 1GU      0.424000
     39 H16         7.3590    0.1380   -1.1900 ha        1 1GU      0.141000
     40 H17         6.1340   -1.6370   -0.4880 ho        1 1GU      0.427000
@<TRIPOS>BOND
     1    1    2 2   
     2    1   26 1   
     3    1   27 1   
     4    2    3 1   
     5    2   28 1   
     6    3    4 1   
     7    3   29 1   
     8    3   30 1   
     9    4    5 1   
    10    4   31 1   
    11    4   32 1   
    12    5    6 1   
    13    5   17 1   
    14    6    7 2   
    15    7    8 ar  
    16    7   16 ar  
    17    8    9 1   
    18    8   13 ar  
    19    9   10 1   
    20    9   11 1   
    21    9   12 1   
    22   13   14 ar  
    23   13   33 1   
    24   14   15 ar  
    25   14   34 1   
    26   15   16 ar  
    27   15   35 1   
    28   16   17 2   
    29   17   18 1   
    30   18   19 ar  
    31   18   24 ar  
    32   19   20 ar  
    33   19   36 1   
    34   20   21 ar  
    35   20   37 1   
    36   21   22 1   
    37   21   23 ar  
    38   22   38 1   
    39   23   24 ar  
    40   23   39 1   
    41   24   25 1   
    42   25   40 1   
@<TRIPOS>SUBSTRUCTURE
     1 1GU         1 TEMP              0 ****  ****    0 ROOT
