@<TRIPOS>MOLECULE
1GU
   40    42     1     0     0
SMALL
bcc


@<TRIPOS>ATOM
      1 C01          0.6240     0.2680    -0.3310 c2         1 1GU      -0.206000
      2 C02          1.8720     0.1010     0.1000 c2         1 1GU      -0.178200
      3 C03          2.2320    -0.0890     1.5260 c3         1 1GU      -0.066200
      4 C04          3.1940    -1.2700     1.6620 c3         1 1GU       0.053300
      5 N05          3.6040    -1.5440     3.0370 na         1 1GU       0.188800
      6 N06          2.7230    -1.9010     3.9770 nc         1 1GU      -0.260400
      7 C07          3.4440    -2.0960     5.1300 ca         1 1GU      -0.054000
      8 C08          3.0310    -2.4850     6.4350 ca         1 1GU      -0.139300
      9 C09          1.5580    -2.7550     6.6970 c3         1 1GU       0.697200
     10 F10          0.7310    -1.6830     6.4670 f          1 1GU      -0.237967
     11 F11          1.2660    -3.1210     7.9920 f          1 1GU      -0.237967
     12 F12          1.0210    -3.7690     5.9430 f          1 1GU      -0.237967
     13 C13          3.9780    -2.6050     7.4210 ca         1 1GU      -0.055000
     14 C14          5.3550    -2.3500     7.1680 ca         1 1GU      -0.169000
     15 C15          5.7990    -1.9740     5.9240 ca         1 1GU      -0.040000
     16 C16          4.8620    -1.8400     4.8820 ca         1 1GU      -0.134000
     17 C17          4.9200    -1.4760     3.5070 cc         1 1GU      -0.022300
     18 C18          6.0950    -1.1250     2.7350 ca         1 1GU      -0.109800
     19 C19          7.1650    -2.0310     2.6670 ca         1 1GU      -0.041000
     20 C20          8.3350    -1.7230     1.9880 ca         1 1GU      -0.193000
     21 C21          8.4510    -0.4700     1.3580 ca         1 1GU       0.178100
     22 O22          9.6320    -0.2210     0.7050 oh         1 1GU      -0.487100
     23 C23          7.4060     0.4590     1.4030 ca         1 1GU      -0.307000
     24 C24          6.2320     0.1230     2.0920 ca         1 1GU       0.181100
     25 O25          5.1660     0.9880     2.1550 oh         1 1GU      -0.491100
     26 H1           0.3880     0.4300    -1.3910 ha         1 1GU       0.116000
     27 H2          -0.2450     0.2560     0.3410 ha         1 1GU       0.116000
     28 H4           2.7240     0.1150    -0.6020 ha         1 1GU       0.116000
     29 H6           1.3150    -0.2610     2.1520 hc         1 1GU       0.073200
     30 H7           2.7330     0.8440     1.9060 hc         1 1GU       0.073200
     31 H8           2.7040    -2.2000     1.2530 h1         1 1GU       0.072200
     32 H9           4.1320    -1.0590     1.0750 h1         1 1GU       0.072200
     33 H10          3.6790    -2.9040     8.4400 ha         1 1GU       0.149000
     34 H11          6.0630    -2.4610     8.0020 ha         1 1GU       0.138000
     35 H12          6.8630    -1.7750     5.7280 ha         1 1GU       0.138000
     36 H13          7.0670    -3.0070     3.1700 ha         1 1GU       0.152000
     37 H14          9.1710    -2.4350     1.9350 ha         1 1GU       0.160000
     38 H15          9.5880     0.6690     0.3240 ho         1 1GU       0.424000
     39 H16          7.5030     1.4380     0.9130 ha         1 1GU       0.141000
     40 H17          5.4420     1.8370     1.7780 ho         1 1GU       0.426000
@<TRIPOS>BOND
     1     1     2 2   
     2     1    26 1   
     3     1    27 1   
     4     2     3 1   
     5     2    28 1   
     6     3     4 1   
     7     3    29 1   
     8     3    30 1   
     9     4     5 1   
    10     4    31 1   
    11     4    32 1   
    12     5     6 1   
    13     5    17 1   
    14     6     7 2   
    15     7     8 ar  
    16     7    16 ar  
    17     8     9 1   
    18     8    13 ar  
    19     9    10 1   
    20     9    11 1   
    21     9    12 1   
    22    13    14 ar  
    23    13    33 1   
    24    14    15 ar  
    25    14    34 1   
    26    15    16 ar  
    27    15    35 1   
    28    16    17 2   
    29    17    18 1   
    30    18    19 ar  
    31    18    24 ar  
    32    19    20 ar  
    33    19    36 1   
    34    20    21 ar  
    35    20    37 1   
    36    21    22 1   
    37    21    23 ar  
    38    22    38 1   
    39    23    24 ar  
    40    23    39 1   
    41    24    25 1   
    42    25    40 1   
@<TRIPOS>SUBSTRUCTURE
     1 1GU         1 TEMP              0 ****  ****    0 ROOT
