@<TRIPOS>MOLECULE
1GV
   37    39     1     0     0
SMALL
bcc


@<TRIPOS>ATOM
      1 C01        -0.0940   -0.2800    0.0960 ca        1 1GV      0.131100
      2 C02         1.2900   -0.5070    0.0330 ca        1 1GV     -0.161500
      3 C03         2.0350   -0.4310    1.2000 ca        1 1GV     -0.077500
      4 C04         1.4390   -0.1350    2.4420 ca        1 1GV     -0.045000
      5 C05         0.0500    0.1050    2.4860 ca        1 1GV     -0.025800
      6 C06        -0.7100    0.0270    1.3140 ca        1 1GV     -0.216000
      7 C07         2.2700   -0.0870    3.6220 cc        1 1GV     -0.060100
      8 S01         1.8100    0.6420    5.0750 ss        1 1GV      0.024200
      9 C08         3.2640    0.3110    5.8490 cc        1 1GV     -0.060100
     10 C09         4.1230   -0.3820    5.0160 cd        1 1GV     -0.150500
     11 C10         3.5500   -0.6110    3.7320 cd        1 1GV     -0.150500
     12 C11         3.5300    0.6770    7.2250 ca        1 1GV     -0.045000
     13 C12         3.5620   -0.3350    8.1990 ca        1 1GV     -0.077500
     14 C13         3.8140   -0.0440    9.5330 ca        1 1GV     -0.161500
     15 C14         4.0430    1.2920    9.9020 ca        1 1GV      0.131100
     16 C15         4.0210    2.3140    8.9460 ca        1 1GV     -0.216000
     17 C16         3.7670    2.0110    7.6040 ca        1 1GV     -0.025800
     18 O01         4.2850    1.5280   11.2350 oh        1 1GV     -0.496600
     19 O02        -0.7890   -0.3710   -1.0870 oh        1 1GV     -0.496600
     20 C17         3.7730    3.1060    6.6050 c3        1 1GV     -0.065800
     21 C18        -0.6380    0.4520    3.7520 c3        1 1GV     -0.065800
     22 H1          1.7610   -0.7400   -0.9320 ha        1 1GV      0.152000
     23 H2          3.1220   -0.6000    1.1490 ha        1 1GV      0.139500
     24 H3         -1.7940    0.2080    1.3510 ha        1 1GV      0.134000
     25 H4          5.1240   -0.7190    5.2930 ha        1 1GV      0.154500
     26 H5          4.0790   -1.1500    2.9420 ha        1 1GV      0.154500
     27 H6          3.3840   -1.3790    7.8950 ha        1 1GV      0.139500
     28 H7          3.8380   -0.8330   10.2970 ha        1 1GV      0.152000
     29 H8          4.2050    3.3550    9.2480 ha        1 1GV      0.134000
     30 H9          4.4300    2.4780   11.3490 ho        1 1GV      0.419000
     31 H10        -1.7230   -0.1960   -0.9000 ho        1 1GV      0.419000
     32 H11         4.7530    3.1180    6.0630 hc        1 1GV      0.052533
     33 H12         2.9600    2.9570    5.8490 hc        1 1GV      0.052533
     34 H13         3.6270    4.1010    7.0930 hc        1 1GV      0.052533
     35 H14        -1.7460    0.4960    3.6150 hc        1 1GV      0.052533
     36 H15        -0.2980    1.4580    4.1140 hc        1 1GV      0.052533
     37 H16        -0.4180   -0.3100    4.5450 hc        1 1GV      0.052533
@<TRIPOS>BOND
     1    1    2 ar  
     2    1    6 ar  
     3    1   19 1   
     4    2    3 ar  
     5    2   22 1   
     6    3    4 ar  
     7    3   23 1   
     8    4    5 ar  
     9    4    7 1   
    10    5    6 ar  
    11    5   21 1   
    12    6   24 1   
    13    7    8 1   
    14    7   11 2   
    15    8    9 1   
    16    9   10 2   
    17    9   12 1   
    18   10   11 1   
    19   10   25 1   
    20   11   26 1   
    21   12   13 ar  
    22   12   17 ar  
    23   13   14 ar  
    24   13   27 1   
    25   14   15 ar  
    26   14   28 1   
    27   15   16 ar  
    28   15   18 1   
    29   16   17 ar  
    30   16   29 1   
    31   17   20 1   
    32   18   30 1   
    33   19   31 1   
    34   20   32 1   
    35   20   33 1   
    36   20   34 1   
    37   21   35 1   
    38   21   36 1   
    39   21   37 1   
@<TRIPOS>SUBSTRUCTURE
     1 1GV         1 TEMP              0 ****  ****    0 ROOT
