@<TRIPOS>MOLECULE
molecule
   37    39     1     0     0
SMALL
bcc


@<TRIPOS>ATOM
      1 C01          0.0000     0.0000     0.0000 ca         1 1GV       0.112100
      2 C02          1.3890     0.0000     0.0000 ca         1 1GV      -0.158000
      3 C03          2.0800     0.0000     1.1930 ca         1 1GV      -0.093500
      4 C04          1.3800     0.0010     2.4020 ca         1 1GV      -0.026000
      5 C05         -0.0150     0.0020     2.3970 ca         1 1GV      -0.055300
      6 C06         -0.6980     0.0010     1.2000 ca         1 1GV      -0.154000
      7 C07          2.1170     0.0010     3.6840 cc         1 1GV       0.011900
      8 S01          1.8210     1.1020     5.0220 ss         1 1GV      -0.118800
      9 C08          3.0960     0.3460     5.9690 cc         1 1GV       0.011900
     10 C09          3.6560    -0.6560     5.2570 cd         1 1GV      -0.148000
     11 C10          3.1150    -0.8490     4.0070 cd         1 1GV      -0.148000
     12 C11          3.4940     0.7450     7.3340 ca         1 1GV      -0.026000
     13 C12          3.6100    -0.2170     8.3390 ca         1 1GV      -0.093500
     14 C13          3.9820     0.1600     9.6120 ca         1 1GV      -0.158000
     15 C14          4.2420     1.4950     9.8950 ca         1 1GV       0.112100
     16 C15          4.1280     2.4550     8.8980 ca         1 1GV      -0.154000
     17 C16          3.7620     2.0860     7.6210 ca         1 1GV      -0.055300
     18 O01          4.6070     1.8630    11.1510 oh         1 1GV      -0.522100
     19 O02         -0.6760     0.0050    -1.1780 oh         1 1GV      -0.522100
     20 C17          3.6440     3.1270     6.5390 c3         1 1GV      -0.053300
     21 C18         -0.7750     0.0030     3.6990 c3         1 1GV      -0.053300
     22 H1           1.9300    -0.0010    -0.9390 ha         1 1GV       0.142000
     23 H2           3.1630    -0.0000     1.1930 ha         1 1GV       0.140000
     24 H3          -1.7820     0.0020     1.1950 ha         1 1GV       0.143000
     25 H4           4.4650    -1.2650     5.6430 ha         1 1GV       0.151000
     26 H5           3.4690    -1.6180     3.3310 ha         1 1GV       0.151000
     27 H6           3.4070    -1.2580     8.1190 ha         1 1GV       0.140000
     28 H7           4.0720    -0.5860    10.3930 ha         1 1GV       0.142000
     29 H8           4.3330     3.4940     9.1230 ha         1 1GV       0.143000
     30 H9           5.5480     1.8670    11.2170 ho         1 1GV       0.420000
     31 H10         -0.8730    -0.8820    -1.4320 ho         1 1GV       0.420000
     32 H11          4.1370     4.0370     6.8580 hc         1 1GV       0.050033
     33 H12          2.5970     3.3320     6.3480 hc         1 1GV       0.050033
     34 H13          4.1120     2.7610     5.6330 hc         1 1GV       0.050033
     35 H14         -0.7310     0.9920     4.1410 hc         1 1GV       0.050033
     36 H15         -1.8080    -0.2640     3.5150 hc         1 1GV       0.050033
     37 H16         -0.3310    -0.7150     4.3770 hc         1 1GV       0.050033
@<TRIPOS>BOND
     1    19     1 1   
     2     1     6 ar  
     3     1     2 ar  
     4     6     5 ar  
     5    21     5 1   
     6     2     3 ar  
     7     5     4 ar  
     8     3     4 ar  
     9     4     7 1   
    10     7     8 1   
    11     7    11 2   
    12     8     9 1   
    13    11    10 1   
    14    20    17 1   
    15    10     9 2   
    16     9    12 1   
    17    17    12 ar  
    18    17    16 ar  
    19    12    13 ar  
    20    16    15 ar  
    21    13    14 ar  
    22    15    14 ar  
    23    15    18 1   
    24     2    22 1   
    25     3    23 1   
    26     6    24 1   
    27    10    25 1   
    28    11    26 1   
    29    13    27 1   
    30    14    28 1   
    31    16    29 1   
    32    18    30 1   
    33    19    31 1   
    34    20    32 1   
    35    20    33 1   
    36    20    34 1   
    37    21    35 1   
    38    21    36 1   
    39    21    37 1   
@<TRIPOS>SUBSTRUCTURE
     1 1GV         1 TEMP              0 ****  ****    0 ROOT
