@<TRIPOS>MOLECULE
1GV
   37    39     1     0     0
SMALL
bcc


@<TRIPOS>ATOM
      1 C01         -0.2000     0.1770    -0.0150 ca         1 1GV       0.130600
      2 C02          1.0970     0.7050     0.0320 ca         1 1GV      -0.217500
      3 C03          1.7970     0.6720     1.2330 ca         1 1GV      -0.074000
      4 C04          1.2240     0.1220     2.3880 ca         1 1GV      -0.044500
      5 C05         -0.0820    -0.4080     2.3310 ca         1 1GV      -0.028800
      6 C06         -0.7910    -0.3790     1.1290 ca         1 1GV      -0.160000
      7 C07          1.9900     0.1050     3.6170 cc         1 1GV      -0.062100
      8 S01          2.3150     1.4950     4.5000 ss         1 1GV       0.033200
      9 C08          3.2120     0.6900     5.6830 cc         1 1GV      -0.062100
     10 C09          3.2520    -0.6700     5.4110 cd         1 1GV      -0.152500
     11 C10          2.5490    -1.0080     4.2200 cd         1 1GV      -0.152500
     12 C11          3.8480     1.3450     6.8020 ca         1 1GV      -0.044500
     13 C12          4.8260     0.6480     7.5340 ca         1 1GV      -0.074000
     14 C13          5.4610     1.2210     8.6280 ca         1 1GV      -0.217500
     15 C14          5.1190     2.5260     9.0080 ca         1 1GV       0.130600
     16 C15          4.1560     3.2480     8.2910 ca         1 1GV      -0.160000
     17 C16          3.5250     2.6650     7.1900 ca         1 1GV      -0.028800
     18 O01          5.6970     3.1660    10.0810 oh         1 1GV      -0.496600
     19 O02         -0.9590     0.1710    -1.1620 oh         1 1GV      -0.496600
     20 C17          2.5250     3.4670     6.4450 c3         1 1GV      -0.065300
     21 C18         -0.7230    -0.9870     3.5360 c3         1 1GV      -0.065300
     22 H1           1.5560     1.1370    -0.8690 ha         1 1GV       0.135000
     23 H2           2.8190     1.0800     1.2770 ha         1 1GV       0.138000
     24 H3          -1.8100    -0.7870     1.0650 ha         1 1GV       0.151000
     25 H4           3.7530    -1.4200     6.0270 ha         1 1GV       0.153000
     26 H5           2.4740    -2.0290     3.8380 ha         1 1GV       0.153000
     27 H6           5.1040    -0.3740     7.2330 ha         1 1GV       0.138000
     28 H7           6.2220     0.6600     9.1870 ha         1 1GV       0.135000
     29 H8           3.9080     4.2720     8.6050 ha         1 1GV       0.151000
     30 H9           6.3370     2.5590    10.4800 ho         1 1GV       0.419500
     31 H10         -0.4340     0.5730    -1.8690 ho         1 1GV       0.419500
     32 H11          2.3290     4.4450     6.9520 hc         1 1GV       0.053033
     33 H12          2.8980     3.6880     5.4100 hc         1 1GV       0.053033
     34 H13          1.5500     2.9170     6.3700 hc         1 1GV       0.053033
     35 H14          0.0030    -1.6250     4.0990 hc         1 1GV       0.053033
     36 H15         -1.0660    -0.1660     4.2150 hc         1 1GV       0.053033
     37 H16         -1.6090    -1.6110     3.2630 hc         1 1GV       0.053033
@<TRIPOS>BOND
     1     1     2 ar  
     2     1     6 ar  
     3     1    19 1   
     4     2     3 ar  
     5     2    22 1   
     6     3     4 ar  
     7     3    23 1   
     8     4     5 ar  
     9     4     7 1   
    10     5     6 ar  
    11     5    21 1   
    12     6    24 1   
    13     7     8 1   
    14     7    11 2   
    15     8     9 1   
    16     9    10 2   
    17     9    12 1   
    18    10    11 1   
    19    10    25 1   
    20    11    26 1   
    21    12    13 ar  
    22    12    17 ar  
    23    13    14 ar  
    24    13    27 1   
    25    14    15 ar  
    26    14    28 1   
    27    15    16 ar  
    28    15    18 1   
    29    16    17 ar  
    30    16    29 1   
    31    17    20 1   
    32    18    30 1   
    33    19    31 1   
    34    20    32 1   
    35    20    33 1   
    36    20    34 1   
    37    21    35 1   
    38    21    36 1   
    39    21    37 1   
@<TRIPOS>SUBSTRUCTURE
     1 1GV         1 TEMP              0 ****  ****    0 ROOT
