@<TRIPOS>MOLECULE
molecule
   22    21     1     0     0
SMALL
bcc


@<TRIPOS>ATOM
      1 O2           0.0000     0.0000     0.0000 o          1 1H1      -0.566000
      2 C3           1.2080     0.0000     0.0000 c          1 1H1       0.656100
      3 O1           1.8790     0.0000     1.1620 os         1 1H1      -0.467900
      4 C2           1.0890     0.0010     2.3800 c3         1 1H1       0.149400
      5 C1           2.0200     0.0010     3.5930 c3         1 1H1      -0.101100
      6 C4           1.9620    -0.0080    -1.3050 c3         1 1H1      -0.311400
      7 C5           0.9670    -0.0140    -2.4680 c3         1 1H1       0.207100
      8 O3           0.2240    -1.2340    -2.4530 oh         1 1H1      -0.612800
      9 C6           1.7280     0.1050    -3.7900 c3         1 1H1      -0.063300
     10 C7           0.7680     0.2200    -4.9000 c1         1 1H1       0.219700
     11 N            0.0410     0.3000    -5.7690 n1         1 1H1      -0.354800
     12 H1           0.7450    -1.0250     2.3230 h1         1 1H1       0.066200
     13 H2           0.4850     0.8710     2.1520 h1         1 1H1       0.066200
     14 H3           1.4630    -0.3700     4.4450 hc         1 1H1       0.049700
     15 H4           2.4350     0.9830     3.7840 hc         1 1H1       0.049700
     16 H5           2.9040    -0.5770     3.3490 hc         1 1H1       0.049700
     17 H6           3.0260     0.0220    -1.1060 hc         1 1H1       0.145200
     18 H7           1.6820    -0.9330    -1.7940 hc         1 1H1       0.145200
     19 H8           0.2870     0.8240    -2.3660 h1         1 1H1       0.071700
     20 H9          -0.6020    -1.0420    -2.8660 ho         1 1H1       0.424000
     21 H10          2.3440     0.9400    -3.4770 hc         1 1H1       0.088700
     22 H11          2.4270    -0.7000    -3.9820 hc         1 1H1       0.088700
@<TRIPOS>BOND
     1    11    10 3   
     2    10     9 1   
     3     9     7 1   
     4     8     7 1   
     5     7     6 1   
     6     3     2 1   
     7     3     4 1   
     8     6     2 1   
     9     5     4 1   
    10     2     1 2   
    11     4    12 1   
    12     4    13 1   
    13     5    14 1   
    14     5    15 1   
    15     5    16 1   
    16     6    17 1   
    17     6    18 1   
    18     7    19 1   
    19     8    20 1   
    20     9    21 1   
    21     9    22 1   
@<TRIPOS>SUBSTRUCTURE
     1 1H1         1 TEMP              0 ****  ****    0 ROOT
