@<TRIPOS>MOLECULE
1H1
   22    21     1     0     0
SMALL
bcc


@<TRIPOS>ATOM
      1 O2          -0.1020    -0.2960     0.1960 o          1 1H1      -0.535000
      2 C3           1.1010    -0.1480    -0.0240 c          1 1H1       0.640100
      3 O1           1.9880    -0.3510     0.9970 os         1 1H1      -0.448900
      4 C2           1.4590    -0.7090     2.2820 c3         1 1H1       0.140400
      5 C1           0.9700     0.5100     3.0250 c3         1 1H1      -0.126100
      6 C4           1.7490     0.1930    -1.3310 c3         1 1H1      -0.130400
      7 C5           2.9440     1.1290    -1.1860 c3         1 1H1       0.152100
      8 O3           2.4170     2.4330    -0.9790 oh         1 1H1      -0.591800
      9 C6           3.7870     1.1390    -2.4670 c3         1 1H1      -0.060300
     10 C7           4.5280    -0.0890    -2.6380 c1         1 1H1       0.204700
     11 N            5.1320    -1.0710    -2.7860 n1         1 1H1      -0.360800
     12 H1           2.3430    -1.1790     2.7910 h1         1 1H1       0.063200
     13 H2           0.6370    -1.4620     2.1570 h1         1 1H1       0.063200
     14 H3           1.7820     1.2720     3.1100 hc         1 1H1       0.049700
     15 H4           0.1070     0.9680     2.4840 hc         1 1H1       0.049700
     16 H5           0.6410     0.2150     4.0500 hc         1 1H1       0.049700
     17 H6           0.9720     0.6690    -1.9880 hc         1 1H1       0.095200
     18 H7           2.0890    -0.7670    -1.8040 hc         1 1H1       0.095200
     19 H8           3.5780     0.8180    -0.3090 h1         1 1H1       0.072700
     20 H9           3.1300     2.9710    -0.6160 ho         1 1H1       0.408000
     21 H10          4.5080     2.0020    -2.4250 hc         1 1H1       0.084700
     22 H11          3.1160     1.3020    -3.3560 hc         1 1H1       0.084700
@<TRIPOS>BOND
     1     1     2 2   
     2     2     3 1   
     3     2     6 1   
     4     3     4 1   
     5     4     5 1   
     6     4    12 1   
     7     4    13 1   
     8     5    14 1   
     9     5    15 1   
    10     5    16 1   
    11     6     7 1   
    12     6    17 1   
    13     6    18 1   
    14     7     8 1   
    15     7     9 1   
    16     7    19 1   
    17     8    20 1   
    18     9    10 1   
    19     9    21 1   
    20     9    22 1   
    21    10    11 3   
@<TRIPOS>SUBSTRUCTURE
     1 1H1         1 TEMP              0 ****  ****    0 ROOT
