@<TRIPOS>MOLECULE
1H2
   39    41     1     0     0
SMALL
bcc


@<TRIPOS>ATOM
      1 C4          0.1210    0.0640   -0.0420 ca        1 1H2     -0.148000
      2 C14         4.1530    3.4060   -1.4800 ca        1 1H2     -0.132500
      3 C5          1.5130   -0.0670   -0.0400 ca        1 1H2     -0.088300
      4 C6          2.1910   -0.3560    1.1430 ca        1 1H2     -0.141000
      5 C11         1.6580    2.3750   -2.1820 ca        1 1H2     -0.109500
      6 C7          1.4530   -0.5130    2.3270 ca        1 1H2      0.127100
      7 C8          0.0590   -0.3840    2.3370 ca        1 1H2     -0.201000
      8 C9          2.2730    0.1010   -1.3310 c3        1 1H2      0.235700
      9 C10         2.6120    1.5440   -1.5820 ca        1 1H2     -0.082300
     10 C12         1.9520    3.7150   -2.4240 ca        1 1H2     -0.132500
     11 C13         3.1990    4.2320   -2.0730 ca        1 1H2     -0.124000
     12 C3         -0.6130   -0.0910    1.1420 ca        1 1H2      0.036000
     13 O1          3.4910   -0.6390   -1.3250 oh        1 1H2     -0.592800
     14 C15         3.8620    2.0640   -1.2340 ca        1 1H2     -0.109500
     15 O           2.1770   -0.8010    3.4620 oh        1 1H2     -0.495100
     16 C2         -2.0470    0.0610    1.1280 cc        1 1H2     -0.280600
     17 C16        -2.8070    0.9780    0.4160 cd        1 1H2      0.285000
     18 C17        -2.5280    2.0670   -0.5180 c3        1 1H2     -0.145400
     19 O2         -4.1650    0.7410    0.7270 os        1 1H2     -0.117100
     20 N          -4.2710   -0.2640    1.5730 nd        1 1H2     -0.363300
     21 C1         -3.0410   -0.7320    1.8690 cc        1 1H2      0.336600
     22 C          -2.7440   -1.8570    2.7750 c3        1 1H2     -0.135400
     23 H1         -0.4070    0.2930   -0.9810 ha        1 1H2      0.136000
     24 H3          3.2870   -0.4520    1.1590 ha        1 1H2      0.164000
     25 H4          0.6740    1.9680   -2.4610 ha        1 1H2      0.138000
     26 H5         -0.5050   -0.4980    3.2740 ha        1 1H2      0.141000
     27 H6          1.6320   -0.2810   -2.1820 h1        1 1H2      0.048700
     28 H7          1.2000    4.3650   -2.8940 ha        1 1H2      0.132000
     29 H8          3.4300    5.2900   -2.2660 ha        1 1H2      0.132000
     30 H9          3.2620   -1.5440   -1.0810 ho        1 1H2      0.409000
     31 H10         4.6140    1.4040   -0.7740 ha        1 1H2      0.138000
     32 H11         1.5610   -0.8380    4.2080 ho        1 1H2      0.420000
     33 H12        -3.1910    2.9440   -0.3070 hc        1 1H2      0.069033
     34 H13        -2.7180    1.7280   -1.5680 hc        1 1H2      0.069033
     35 H14        -1.4580    2.3810   -0.4260 hc        1 1H2      0.069033
     36 H15        -2.6320   -1.4790    3.8230 hc        1 1H2      0.059700
     37 H16        -1.7880   -2.3480    2.4650 hc        1 1H2      0.059700
     38 H17        -3.5630   -2.6200    2.7620 hc        1 1H2      0.059700
     39 H2          5.1380    3.8100   -1.2060 ha        1 1H2      0.132000
@<TRIPOS>BOND
     1    1    3 ar
     2    1   12 ar
     3    1   23 1
     4    2   11 ar
     5    2   14 ar
     6    2   39 1
     7    3    4 ar
     8    3    8 1
     9    4    6 ar
    10    4   24 1
    11    5    9 ar
    12    5   10 ar
    13    5   25 1
    14    6    7 ar
    15    6   15 1
    16    7   12 ar
    17    7   26 1
    18    8    9 1
    19    8   13 1
    20    8   27 1
    21    9   14 ar
    22   10   11 ar
    23   10   28 1
    24   11   29 1
    25   12   16 1
    26   13   30 1
    27   14   31 1
    28   15   32 1
    29   16   17 2
    30   16   21 1
    31   17   18 1
    32   17   19 1
    33   18   33 1
    34   18   34 1
    35   18   35 1
    36   19   20 1
    37   20   21 2
    38   21   22 1
    39   22   36 1
    40   22   37 1
    41   22   38 1
@<TRIPOS>SUBSTRUCTURE
     1 1H2         1 TEMP              0 ****  ****    0 ROOT
