@<TRIPOS>MOLECULE
1H3
   39    41     1     0     0
SMALL
bcc


@<TRIPOS>ATOM
      1 C4          0.1350    0.0280    0.1810 ca        1 1H3     -0.153000
      2 C14         3.7240   -3.2160   -1.9570 ca        1 1H3     -0.128500
      3 C5          1.5270    0.0710    0.2920 ca        1 1H3     -0.038300
      4 C6          2.1340    0.0100    1.5470 ca        1 1H3     -0.178000
      5 C11         1.5850   -1.5460   -2.6080 ca        1 1H3     -0.115000
      6 C7          1.3280   -0.0980    2.6880 ca        1 1H3      0.122100
      7 C8         -0.0700   -0.1500    2.5910 ca        1 1H3     -0.145000
      8 C9          2.3530    0.1890   -0.9610 c3        1 1H3      0.235700
      9 C10         2.5120   -1.1440   -1.6410 ca        1 1H3     -0.129300
     10 C12         1.7270   -2.7790   -3.2440 ca        1 1H3     -0.128500
     11 C13         2.7960   -3.6140   -2.9200 ca        1 1H3     -0.122000
     12 C3         -0.6690   -0.0890    1.3260 ca        1 1H3      0.027000
     13 O1          3.6150    0.7500   -0.6020 oh        1 1H3     -0.597800
     14 C15         3.5820   -1.9850   -1.3180 ca        1 1H3     -0.115000
     15 O           1.8530   -0.1610    3.9590 oh        1 1H3     -0.498100
     16 C2         -2.1040   -0.1330    1.1940 cc        1 1H3     -0.274600
     17 C16        -2.9100    0.5720    0.3110 cd        1 1H3      0.279000
     18 C17        -2.6920    1.5590   -0.7430 c3        1 1H3     -0.141400
     19 O2         -4.2500    0.1950    0.5590 os        1 1H3     -0.119100
     20 N          -4.3000   -0.6970    1.5290 nd        1 1H3     -0.366300
     21 C1         -3.0510   -0.9510    1.9710 cc        1 1H3      0.340600
     22 C          -2.6930   -1.8950    3.0460 c3        1 1H3     -0.137400
     23 H1         -0.3400    0.0750   -0.8110 ha        1 1H3      0.133000
     24 H3          3.2300    0.0580    1.6310 ha        1 1H3      0.154000
     25 H4          0.7390   -0.8910   -2.8630 ha        1 1H3      0.136000
     26 H5         -0.6770   -0.2270    3.5040 ha        1 1H3      0.155000
     27 H6          1.8400    0.9060   -1.6700 h1        1 1H3      0.047700
     28 H7          0.9940   -3.0920   -4.0010 ha        1 1H3      0.135000
     29 H8          2.9070   -4.5860   -3.4220 ha        1 1H3      0.134000
     30 H9          4.1680    0.7080   -1.3910 ho        1 1H3      0.410000
     31 H10         4.3070   -1.6670   -0.5520 ha        1 1H3      0.136000
     32 H11         2.8160   -0.0880    3.8870 ho        1 1H3      0.422000
     33 H12        -3.5300    2.3000   -0.7690 hc        1 1H3      0.067033
     34 H13        -2.6410    1.0480   -1.7390 hc        1 1H3      0.067033
     35 H14        -1.7270    2.0970   -0.5650 hc        1 1H3      0.067033
     36 H15        -2.7020   -1.3650    4.0320 hc        1 1H3      0.061367
     37 H16        -1.6660   -2.2990    2.8650 hc        1 1H3      0.061367
     38 H17        -3.4150   -2.7480    3.0980 hc        1 1H3      0.061367
     39 H2          4.5660   -3.8740   -1.6980 ha        1 1H3      0.135000
@<TRIPOS>BOND
     1    1    3 ar  
     2    1   12 ar  
     3    1   23 1   
     4    2   11 ar  
     5    2   14 ar  
     6    2   39 1   
     7    3    4 ar  
     8    3    8 1   
     9    4    6 ar  
    10    4   24 1   
    11    5    9 ar  
    12    5   10 ar  
    13    5   25 1   
    14    6    7 ar  
    15    6   15 1   
    16    7   12 ar  
    17    7   26 1   
    18    8    9 1   
    19    8   13 1   
    20    8   27 1   
    21    9   14 ar  
    22   10   11 ar  
    23   10   28 1   
    24   11   29 1   
    25   12   16 1   
    26   13   30 1   
    27   14   31 1   
    28   15   32 1   
    29   16   17 2   
    30   16   21 1   
    31   17   18 1   
    32   17   19 1   
    33   18   33 1   
    34   18   34 1   
    35   18   35 1   
    36   19   20 1   
    37   20   21 2   
    38   21   22 1   
    39   22   36 1   
    40   22   37 1   
    41   22   38 1   
@<TRIPOS>SUBSTRUCTURE
     1 1H3         1 TEMP              0 ****  ****    0 ROOT
