@<TRIPOS>MOLECULE
1H4
   66    70     1     0     0
SMALL
bcc


@<TRIPOS>ATOM
      1 C14         -1.1570     1.6730     0.0000 cx         1 1H4      -0.121900
      2 C11          2.2150     2.2970     1.1650 ca         1 1H4       0.498200
      3 C10          3.7360     3.2900    -0.2790 ca         1 1H4       0.902900
      4 C12          1.4200     1.8540     0.0830 ca         1 1H4      -0.364900
      5 C13          0.2000     1.0810     0.3060 cx         1 1H4      -0.089400
      6 C01          3.3290    -2.0210    -6.4050 cy         1 1H4      -0.086400
      7 C02          1.8680    -2.4010    -6.7200 cy         1 1H4      -0.098400
      8 C03          1.7030    -2.9790    -5.3000 cy         1 1H4      -0.086400
      9 C04          3.1660    -2.5820    -4.9680 cy         1 1H4      -0.181700
     10 C05          3.3370    -1.6030    -3.8550 c          1 1H4       0.556100
     11 O01          4.0420    -1.7210    -2.8650 o          1 1H4      -0.401100
     12 N01          2.5360    -0.3250    -3.9550 ny         1 1H4      -0.679800
     13 C06          3.4210     0.8780    -4.0210 c3         1 1H4       0.125800
     14 C07          2.6790     2.1670    -4.3350 c3         1 1H4      -0.111400
     15 C08          1.3420     2.3840    -3.6270 c3         1 1H4       0.166800
     16 C09          1.8930     2.1910    -1.2190 ca         1 1H4       0.641200
     17 N03          3.0370     2.9110    -1.4100 nb         1 1H4      -0.802000
     18 N04          3.3400     2.9990     1.0300 nb         1 1H4      -0.733000
     19 C15         -0.7460     1.4460     1.4230 cx         1 1H4      -0.121900
     20 C16          5.3060     4.6390    -1.6220 ca         1 1H4       0.154600
     21 C17          5.5050     6.0330    -1.5870 ca         1 1H4      -0.195000
     22 C18          5.9390     6.7280    -2.7370 ca         1 1H4       0.119600
     23 C19          6.1600     5.9890    -3.9270 ca         1 1H4      -0.186000
     24 C20          5.9550     4.6170    -3.9460 ca         1 1H4      -0.104000
     25 C21          5.5330     3.9270    -2.8140 ca         1 1H4      -0.162000
     26 N            6.1490     8.1110    -2.7190 n          1 1H4      -0.392000
     27 C22          6.7350     8.7970    -3.8640 c3         1 1H4       0.085000
     28 C23          6.8950    10.2810    -3.4780 c3         1 1H4      -0.094400
     29 C24          6.3370    10.4070    -2.0670 c3         1 1H4      -0.156400
     30 C            5.8980     9.0070    -1.6610 c          1 1H4       0.709500
     31 O            5.3920     8.7090    -0.5730 o          1 1H4      -0.604500
     32 N02          1.1790     1.7060    -2.3550 nu         1 1H4      -0.860900
     33 N05          4.9610     3.9610    -0.4230 nu         1 1H4      -0.703300
     34 H1          -1.9310     1.0220    -0.4440 hc         1 1H4       0.079950
     35 H2          -1.2220     2.7100    -0.3730 hc         1 1H4       0.079950
     36 H3           1.9090     2.0730     2.2060 h4         1 1H4       0.046100
     37 H4           0.3440    -0.0010     0.0970 hc         1 1H4       0.080700
     38 H7           1.2080    -1.5340    -6.9400 hc         1 1H4       0.076700
     39 H8           1.7610    -3.1550    -7.5300 hc         1 1H4       0.076700
     40 H9           1.5460    -4.0810    -5.2750 hc         1 1H4       0.075700
     41 H10          0.9220    -2.4900    -4.6820 hc         1 1H4       0.075700
     42 H11          3.8280    -3.4610    -4.7550 hc         1 1H4       0.137700
     43 H12          1.9360    -0.3600    -4.7840 hn         1 1H4       0.465800
     44 H13          4.1970     0.6900    -4.8170 hx         1 1H4       0.109700
     45 H14          3.9440     0.9590    -3.0220 hx         1 1H4       0.109700
     46 H15          3.3880     3.0030    -4.0590 hc         1 1H4       0.094200
     47 H16          2.4900     2.2380    -5.4390 hc         1 1H4       0.094200
     48 H17          1.1980     3.5010    -3.5290 h1         1 1H4       0.060200
     49 H18          0.5180     1.9990    -4.2970 h1         1 1H4       0.060200
     50 H20         -1.2210     0.6320     1.9990 hc         1 1H4       0.079950
     51 H21         -0.5150     2.3210     2.0580 hc         1 1H4       0.079950
     52 H23          5.3250     6.5840    -0.6460 ha         1 1H4       0.182000
     53 H24          6.5020     6.4870    -4.8470 ha         1 1H4       0.141000
     54 H25          6.1460     4.0610    -4.8770 ha         1 1H4       0.127000
     55 H26          5.4000     2.8370    -2.8500 ha         1 1H4       0.126000
     56 H27          6.0590     8.6920    -4.7560 h1         1 1H4       0.055200
     57 H28          7.9710    10.5770    -3.5150 hc         1 1H4       0.066700
     58 H29          7.1040    10.7730    -1.3400 hc         1 1H4       0.092200
     59 H30          5.4540    11.0930    -2.0210 hc         1 1H4       0.092200
     60 H31          7.7310     8.3400    -4.1150 h1         1 1H4       0.055200
     61 H32          6.3340    10.9300    -4.1950 hc         1 1H4       0.066700
     62 H5           3.5570    -0.9370    -6.4720 hc         1 1H4       0.075700
     63 H19          0.2010     1.6270    -2.1190 hn         1 1H4       0.416800
     64 H012         1.9370    -0.2330    -3.1160 hn         1 1H4       0.465800
     65 H6           4.0820    -2.5870    -6.9990 hc         1 1H4       0.075700
     66 H22          5.2970     4.4040     0.4120 hn         1 1H4       0.457800
@<TRIPOS>BOND
     1     1     5 1   
     2     1    19 1   
     3     1    34 1   
     4     1    35 1   
     5     2     4 ar  
     6     2    18 ar  
     7     2    36 1   
     8     3    17 ar  
     9     3    18 ar  
    10     3    33 1   
    11     4     5 1   
    12     4    16 ar  
    13     5    19 1   
    14     5    37 1   
    15     6     7 1   
    16     6     9 1   
    17     6    62 1   
    18     6    65 1   
    19     7     8 1   
    20     7    38 1   
    21     7    39 1   
    22     8     9 1   
    23     8    40 1   
    24     8    41 1   
    25     9    10 1   
    26     9    42 1   
    27    10    11 2   
    28    10    12 1   
    29    12    13 1   
    30    12    43 1   
    31    12    64 1   
    32    13    14 1   
    33    13    44 1   
    34    13    45 1   
    35    14    15 1   
    36    14    46 1   
    37    14    47 1   
    38    15    32 1   
    39    15    48 1   
    40    15    49 1   
    41    16    17 ar  
    42    16    32 1   
    43    19    50 1   
    44    19    51 1   
    45    20    21 ar  
    46    20    25 ar  
    47    20    33 1   
    48    21    22 ar  
    49    21    52 1   
    50    22    23 ar  
    51    22    26 1   
    52    23    24 ar  
    53    23    53 1   
    54    24    25 ar  
    55    24    54 1   
    56    25    55 1   
    57    26    27 1   
    58    26    30 1   
    59    27    28 1   
    60    27    56 1   
    61    27    60 1   
    62    28    29 1   
    63    28    57 1   
    64    28    61 1   
    65    29    30 1   
    66    29    58 1   
    67    29    59 1   
    68    30    31 2   
    69    32    63 1   
    70    33    66 1   
@<TRIPOS>SUBSTRUCTURE
     1 1H4         1 TEMP              0 ****  ****    0 ROOT
