@<TRIPOS>MOLECULE
1H4
   66    64     1     0     0
SMALL
bcc


@<TRIPOS>ATOM
      1 C14        -1.0440   -0.1800    2.1040 c2        1 1H4     -0.521000
      2 C11         2.1070    1.9100   -0.5560 c2        1 1H4      0.020000
      3 C10         3.5100    3.5610   -1.3940 c2        1 1H4      0.186000
      4 C12         2.5390    0.9820   -1.5390 c2        1 1H4     -0.236000
      5 C13         2.0000   -0.3880   -1.5640 c3        1 1H4     -0.179000
      6 C01         6.3130   -4.3210   -7.1610 c2        1 1H4     -0.343000
      7 C02         5.6350   -5.4150   -7.9100 c3        1 1H4     -0.092000
      8 C03         4.5850   -4.9160   -8.8690 c3        1 1H4     -0.233000
      9 C04         6.0960   -3.0460   -7.2520 c1        1 1H4      0.060000
     10 C05         5.3110    0.4640   -6.6800 c2        1 1H4      0.274000
     11 O01         4.8780   -0.0170   -5.4940 os        1 1H4     -0.269000
     12 N01         5.7980   -0.4040   -7.5300 n3        1 1H4     -0.301000
     13 C06         4.7320   -2.9700   -2.2970 c3        1 1H4     -0.223000
     14 C07         3.9050   -2.9080   -3.5470 c3        1 1H4     -0.223000
     15 C08         4.3970    1.0650   -4.6590 c1        1 1H4      0.144000
     16 C09         3.4960    1.4800   -2.4590 c2        1 1H4      0.145000
     17 N03         3.9900    2.7450   -2.4150 n2        1 1H4     -0.240000
     18 N04         2.5460    3.1620   -0.4610 n2        1 1H4     -0.203000
     19 C15        -0.1470    0.1510    1.2240 c1        1 1H4      0.122000
     20 C16         3.4830    5.8850   -0.4960 c3        1 1H4      0.170000
     21 C17         4.4490    6.9390   -0.2670 c1        1 1H4     -0.205000
     22 C18         5.2660    7.7920   -0.0540 c1        1 1H4     -0.009000
     23 C19         2.2140    7.4760   -2.1870 cu        1 1H4     -0.165000
     24 C20         1.8140    7.8540   -0.9900 cu        1 1H4     -0.165000
     25 C21         2.2040    6.4220   -1.1310 cx        1 1H4     -0.157000
     26 N           6.1740    8.7620    0.1740 n         1 1H4     -0.220000
     27 C22         6.5920    8.9990    1.5360 c3        1 1H4     -0.073000
     28 C23         8.9610   10.3010   -0.2560 c1        1 1H4     -0.032000
     29 C24         7.6030   10.6910   -0.5370 c3        1 1H4     -0.265000
     30 C           6.5970    9.6050   -0.8730 c2        1 1H4      0.279000
     31 O           6.1830    9.4350   -2.0300 o         1 1H4     -0.321000
     32 H1          1.5060   -0.6090   -2.5440 hc        1 1H4      0.093333
     33 H2         -2.1310   -0.0730    1.9460 ha        1 1H4      0.204000
     34 H3          1.3440    1.5940    0.1930 h4        1 1H4      0.210000
     35 H4         -0.8040   -0.5960    3.0980 ha        1 1H4      0.204000
     36 H7          4.1130   -5.7830   -9.3950 hc        1 1H4      0.090333
     37 H8          3.7820   -4.3570   -8.3290 hc        1 1H4      0.090333
     38 H9          6.4210   -5.9940   -8.4700 hc        1 1H4      0.120000
     39 H10         5.1690   -6.1140   -7.1620 hc        1 1H4      0.120000
     40 H11         5.0330   -4.2430   -9.6390 hc        1 1H4      0.090333
     41 H12         6.1260   -0.0740   -8.4150 hn        1 1H4      0.304500
     42 H13         5.6960   -3.5010   -2.4850 hc        1 1H4      0.074833
     43 H14         5.8770   -1.4740   -7.3400 hn        1 1H4      0.304500
     44 H15         4.1840   -3.5170   -1.4910 hc        1 1H4      0.074833
     45 H16         4.9680   -1.9440   -1.9200 hc        1 1H4      0.074833
     46 H17         2.9180   -2.4190   -3.3460 hc        1 1H4      0.074833
     47 H18         3.7050   -3.9350   -3.9380 hc        1 1H4      0.074833
     48 H20         2.8130   -1.1430   -1.4010 hc        1 1H4      0.093333
     49 H21         1.2360   -0.5200   -0.7510 hc        1 1H4      0.093333
     50 H23         3.2020    5.4570    0.5210 h1        1 1H4      0.144000
     51 H24         1.4560    8.5850   -0.2960 ha        1 1H4      0.196500
     52 H25         2.4370    7.6740   -3.2140 ha        1 1H4      0.196500
     53 H26         1.4150    5.6410   -1.1450 hc        1 1H4      0.119000
     54 H27         6.2680    8.1490    2.1930 h1        1 1H4      0.092333
     55 H28         7.7120    9.0820    1.5750 h1        1 1H4      0.092333
     56 H29         7.2240   11.3280    0.3150 hc        1 1H4      0.182000
     57 H30         9.2380    9.2440   -0.3800 ha        1 1H4      0.057000
     58 H31         6.1400    9.9520    1.9230 h1        1 1H4      0.092333
     59 H32         7.6700   11.3840   -1.4370 hc        1 1H4      0.182000
     60 N02         3.9840    0.6010   -3.4900 nh        1 1H4     -0.223000
     61 H5          5.2340    1.5620   -6.8680 h5        1 1H4      0.228000
     62 H19         3.9780   -0.3720   -3.2280 hn        1 1H4      0.240000
     63 H012        4.4290   -2.3270   -4.3470 hc        1 1H4      0.074833
     64 N05         4.1010    4.8140   -1.2780 nh        1 1H4     -0.263000
     65 H6          7.0930   -4.6830   -6.4500 ha        1 1H4      0.226000
     66 H22         4.6640    5.1150   -2.0460 hn        1 1H4      0.243000
@<TRIPOS>BOND
     1    1   19 1   
     2    1   33 1   
     3    1   35 1   
     4    2    4 1   
     5    2   18 1   
     6    2   34 1   
     7    3   17 1   
     8    3   18 1   
     9    3   64 1   
    10    4    5 1   
    11    4   16 1   
    12    5   32 1   
    13    5   48 1   
    14    5   49 1   
    15    6    7 1   
    16    6    9 1   
    17    6   65 1   
    18    7    8 1   
    19    7   38 1   
    20    7   39 1   
    21    8   36 1   
    22    8   37 1   
    23    8   40 1   
    24   10   11 1   
    25   10   12 1   
    26   10   61 1   
    27   11   15 1   
    28   12   41 1   
    29   12   43 1   
    30   13   14 1   
    31   13   42 1   
    32   13   44 1   
    33   13   45 1   
    34   14   46 1   
    35   14   47 1   
    36   14   63 1   
    37   15   60 1   
    38   16   17 1   
    39   16   60 1   
    40   20   21 1   
    41   20   25 1   
    42   20   50 1   
    43   20   64 1   
    44   21   22 1   
    45   22   26 1   
    46   23   24 1   
    47   23   25 1   
    48   23   52 1   
    49   24   25 1   
    50   24   51 1   
    51   25   53 1   
    52   26   27 1   
    53   26   30 1   
    54   27   54 1   
    55   27   55 1   
    56   27   58 1   
    57   28   29 1   
    58   28   57 1   
    59   29   30 1   
    60   29   56 1   
    61   29   59 1   
    62   30   31 1   
    63   60   62 1   
    64   64   66 1   
@<TRIPOS>SUBSTRUCTURE
     1 1H4         1 TEMP              0 ****  ****    0 ROOT
