@<TRIPOS>MOLECULE
molecule
   65    69     1     0     0
SMALL
bcc


@<TRIPOS>ATOM
      1 C14          0.0000     0.0000     0.0000 cx         1 1H4      -0.135400
      2 C11          2.0260     2.4430     0.3070 ca         1 1H4       0.519200
      3 C10          3.4650     3.5430    -1.1190 ca         1 1H4       0.970900
      4 C12          2.2260     1.2740    -0.4030 ca         1 1H4      -0.415900
      5 C13          1.5300     0.0000     0.0000 cx         1 1H4      -0.069400
      6 C01          6.3890    -5.0380    -8.8450 cy         1 1H4      -0.102900
      7 C02          5.2490    -5.9100    -9.3980 cy         1 1H4      -0.108400
      8 C03          4.2870    -5.0360    -8.5750 cy         1 1H4      -0.102900
      9 C04          5.4760    -4.7450    -7.6430 cy         1 1H4      -0.116700
     10 C05          6.0980    -2.6850    -6.9230 c          1 1H4       0.612100
     11 O01          6.7380    -1.7680    -7.3920 o          1 1H4      -0.559100
     12 N01          5.3200    -2.4830    -5.8420 ns         1 1H4      -0.575900
     13 C06          5.2460    -1.1530    -5.2320 c3         1 1H4       0.100000
     14 C07          4.3010    -1.1950    -4.0300 c3         1 1H4      -0.121400
     15 C08          4.2230     0.1940    -3.3930 c3         1 1H4       0.242800
     16 C09          3.0870     1.3010    -1.5010 ca         1 1H4       0.774200
     17 N03          3.6830     2.4440    -1.8260 nb         1 1H4      -0.859000
     18 N04          2.6480     3.5480    -0.0760 nb         1 1H4      -0.821000
     19 C15          0.7650     0.0000     1.3250 cx         1 1H4      -0.135400
     20 N05          4.0970     4.7190    -1.4880 nu         1 1H4      -0.751300
     21 C16          3.7820     5.9160    -0.8350 ca         1 1H4       0.187600
     22 C17          4.7620     6.8790    -0.6430 ca         1 1H4      -0.200000
     23 C18          4.4470     8.0650     0.0040 ca         1 1H4       0.092600
     24 C19          3.1510     8.2840     0.4590 ca         1 1H4      -0.197000
     25 C20          2.1790     7.3220     0.2660 ca         1 1H4      -0.092000
     26 C21          2.4880     6.1430    -0.3830 ca         1 1H4      -0.151000
     27 N            5.4310     9.0390     0.2020 n          1 1H4      -0.378000
     28 C22          5.2380    10.2660     0.9840 c3         1 1H4       0.094000
     29 C23          6.6600    10.7870     1.2920 c3         1 1H4      -0.099400
     30 C24          7.4760    10.1830     0.1260 c3         1 1H4      -0.169400
     31 C            6.6780     8.9690    -0.2970 c          1 1H4       0.705500
     32 O            7.1030     8.0620    -0.9810 o          1 1H4      -0.620500
     33 H1          -0.4680    -0.9390    -0.2700 hc         1 1H4       0.075450
     34 H2          -0.4680     0.9390    -0.2700 hc         1 1H4       0.075450
     35 H3           1.3600     2.4570     1.1620 h4         1 1H4       0.030100
     36 H4           1.9830    -0.9490    -0.2620 hc         1 1H4       0.072700
     37 H6           6.5850    -4.1620    -9.4510 hc         1 1H4       0.062700
     38 H7           5.2930    -6.9350    -9.0510 hc         1 1H4       0.059700
     39 H8           5.1130    -5.8000   -10.4670 hc         1 1H4       0.059700
     40 H9           3.9460    -4.1600    -9.1130 hc         1 1H4       0.062700
     41 H10          3.5020    -5.6070    -8.0950 hc         1 1H4       0.062700
     42 H11          5.4290    -5.5690    -6.9420 hc         1 1H4       0.066700
     43 H12          4.6950    -3.2020    -5.5340 hn         1 1H4       0.315500
     44 H13          6.2330    -0.8500    -4.9050 h1         1 1H4       0.056200
     45 H14          4.8730    -0.4420    -5.9600 h1         1 1H4       0.056200
     46 H15          3.3140    -1.4980    -4.3580 hc         1 1H4       0.049200
     47 H16          4.6740    -1.9060    -3.3030 hc         1 1H4       0.049200
     48 H17          5.2100     0.4970    -3.0650 h1         1 1H4       0.056700
     49 H18          3.8500     0.9050    -4.1210 h1         1 1H4       0.056700
     50 H20          0.7650    -0.9390     1.8650 hc         1 1H4       0.075450
     51 H21          0.7650     0.9390     1.8650 hc         1 1H4       0.075450
     52 H22          4.7530     4.7180    -2.2440 hn         1 1H4       0.469800
     53 H23          5.7710     6.7060    -0.9990 ha         1 1H4       0.184000
     54 H24          2.9050     9.2080     0.9670 ha         1 1H4       0.126000
     55 H25          1.1700     7.4950     0.6200 ha         1 1H4       0.131000
     56 H26          1.7230     5.3900    -0.5320 ha         1 1H4       0.158000
     57 H27          4.7150    10.0430     1.9060 h1         1 1H4       0.055200
     58 H28          7.0110    10.4090     2.2440 hc         1 1H4       0.061200
     59 H29          7.5480    10.8910    -0.6910 hc         1 1H4       0.079700
     60 H30          8.4600     9.8870     0.4680 hc         1 1H4       0.079700
     61 H31          4.6910    10.9980     0.4020 h1         1 1H4       0.055200
     62 H32          6.6890    11.8690     1.2620 hc         1 1H4       0.061200
     63 N02          3.3170     0.1530    -2.2420 nu         1 1H4      -0.910900
     64 H5           7.2690    -5.6100    -8.5780 hc         1 1H4       0.062700
     65 H19          2.8830    -0.7090    -1.9780 hn         1 1H4       0.450800
@<TRIPOS>BOND
     1    29    28 1   
     2    29    30 1   
     3    28    27 1   
     4    30    31 1   
     5    27    31 1   
     6    27    23 1   
     7    31    32 2   
     8    24    23 ar  
     9    24    25 ar  
    10    23    22 ar  
    11    25    26 ar  
    12    22    21 ar  
    13    26    21 ar  
    14    21    20 1   
    15    14    15 1   
    16    14    13 1   
    17    20     3 1   
    18    15    63 1   
    19    17     3 ar  
    20    17    16 ar  
    21    13    12 1   
    22     3    18 ar  
    23    12    10 1   
    24     6     7 1   
    25     6     9 1   
    26    63    16 1   
    27    16     4 ar  
    28     7     8 1   
    29    18     2 ar  
    30    10     9 1   
    31    10    11 2   
    32     9     8 1   
    33     2     4 ar  
    34     4     5 1   
    35     5     1 1   
    36     5    19 1   
    37     1    19 1   
    38     1    33 1   
    39     1    34 1   
    40     2    35 1   
    41     5    36 1   
    42     6    64 1   
    43     6    37 1   
    44     7    38 1   
    45     7    39 1   
    46     8    40 1   
    47     8    41 1   
    48     9    42 1   
    49    12    43 1   
    50    13    44 1   
    51    13    45 1   
    52    14    46 1   
    53    14    47 1   
    54    15    48 1   
    55    15    49 1   
    56    63    65 1   
    57    19    50 1   
    58    19    51 1   
    59    20    52 1   
    60    22    53 1   
    61    24    54 1   
    62    25    55 1   
    63    26    56 1   
    64    28    57 1   
    65    29    58 1   
    66    30    59 1   
    67    30    60 1   
    68    28    61 1   
    69    29    62 1   
@<TRIPOS>SUBSTRUCTURE
     1 1H4         1 TEMP              0 ****  ****    0 ROOT
