@<TRIPOS>MOLECULE
1H5
   43    45     1     0     0
SMALL
bcc


@<TRIPOS>ATOM
      1 C2           0.0000     0.0000     0.0000 ca         1 1H5      -0.047000
      2 C3           1.3820     0.0000     0.0000 ca         1 1H5      -0.084000
      3 C4           2.0740     0.0000     1.1990 ca         1 1H5       0.123900
      4 C5           1.3840    -0.0000     2.4000 ca         1 1H5      -0.156300
      5 C6           0.0040    -0.0010     2.4040 ca         1 1H5      -0.124000
      6 C8           2.1420    -0.0010     3.7040 c3         1 1H5       0.137500
      7 C9           3.0190     1.2490     3.7830 c3         1 1H5       0.231900
      8 C10          3.0280    -1.2480     3.7770 c3         1 1H5       0.105600
      9 C11          2.1220    -2.4640     4.0260 c3         1 1H5       0.206400
     10 C13          0.9060    -1.0560     5.4990 c2         1 1H5       0.387500
     11 N14          1.1940    -0.0020     4.8150 n2         1 1H5      -0.472900
     12 C1          -0.6930    -0.0010     1.2030 ca         1 1H5      -0.076400
     13 F7           3.4250     0.0000     1.1970 f          1 1H5      -0.110900
     14 O12          1.4500    -2.2660     5.2750 os         1 1H5      -0.392400
     15 F15          3.9410    -1.1180     4.8280 f          1 1H5      -0.200300
     16 N16         -0.0090    -0.9370     6.5160 nz         1 1H5       0.205400
     17 N17         -2.0920     0.0040     1.2050 ns         1 1H5      -0.029100
     18 C18         -2.7700    -0.6320     0.2280 c          1 1H5       0.481600
     19 C19         -4.2470    -0.5290     0.1640 ca         1 1H5       0.305800
     20 O20         -2.1690    -1.2900    -0.5980 o          1 1H5      -0.619100
     21 N21         -4.8930     0.1970     1.0680 nb         1 1H5      -0.582000
     22 C22         -6.2000     0.3180     1.0520 ca         1 1H5       0.422200
     23 C23         -6.9660    -0.3200     0.0690 ca         1 1H5      -0.041300
     24 C24         -6.3180    -1.0940    -0.9000 ca         1 1H5      -0.046000
     25 C25         -4.9380    -1.1910    -0.8500 ca         1 1H5      -0.136300
     26 C26         -8.3920    -0.1860     0.0580 cg         1 1H5       0.199800
     27 N27         -9.5210    -0.0670     0.0640 n1         1 1H5      -0.320800
     28 F28          3.9250     1.2530     2.7170 f          1 1H5      -0.201300
     29 H1          -0.5410     0.0600    -0.9370 ha         1 1H5       0.154000
     30 H2           1.9230     0.0160    -0.9380 ha         1 1H5       0.140000
     31 H3          -0.5340     0.0650     3.3420 ha         1 1H5       0.095000
     32 H4           3.5630     1.2500     4.7200 h1         1 1H5       0.035700
     33 H5           2.3940     2.1330     3.7290 h1         1 1H5       0.035700
     34 H6           3.5570    -1.3750     2.8400 h1         1 1H5       0.101700
     35 H7           1.3940    -2.5460     3.2290 h1         1 1H5       0.063700
     36 H8           2.7240    -3.3630     4.0740 h1         1 1H5       0.063700
     37 H9           0.2110    -1.5910     7.2410 hn         1 1H5       0.227467
     38 H10          0.0210    -0.0070     6.8850 hn         1 1H5       0.227467
     39 H11         -2.5890     0.5010     1.9170 hn         1 1H5       0.188500
     40 H12         -6.6920     0.9200     1.8060 h4         1 1H5      -0.003900
     41 H13         -6.8820    -1.6000    -1.6740 ha         1 1H5       0.132000
     42 H14         -4.4020    -1.7820    -1.5830 ha         1 1H5       0.146000
     43 H163        -0.9260    -1.1330     6.1650 hn         1 1H5       0.227467
@<TRIPOS>BOND
     1     1     2 ar  
     2     1    12 ar  
     3     1    29 1   
     4     2     3 ar  
     5     2    30 1   
     6     3     4 ar  
     7     3    13 1   
     8     4     5 ar  
     9     4     6 1   
    10     5    12 ar  
    11     5    31 1   
    12     6     7 1   
    13     6     8 1   
    14     6    11 1   
    15     7    28 1   
    16     7    32 1   
    17     7    33 1   
    18     8     9 1   
    19     8    15 1   
    20     8    34 1   
    21     9    14 1   
    22     9    35 1   
    23     9    36 1   
    24    10    11 2   
    25    10    14 1   
    26    10    16 1   
    27    12    17 1   
    28    16    37 1   
    29    16    38 1   
    30    16    43 1   
    31    17    18 1   
    32    17    39 1   
    33    18    19 1   
    34    18    20 2   
    35    19    21 ar  
    36    19    25 ar  
    37    21    22 ar  
    38    22    23 ar  
    39    22    40 1   
    40    23    24 ar  
    41    23    26 1   
    42    24    25 ar  
    43    24    41 1   
    44    25    42 1   
    45    26    27 3   
@<TRIPOS>SUBSTRUCTURE
     1 1H5         1 TEMP              0 ****  ****    0 ROOT
