@<TRIPOS>MOLECULE
molecule
   43    45     1     0     0
SMALL
bcc


@<TRIPOS>ATOM
      1 C2           0.0000     0.0000     0.0000 ca         1 1H5      -0.077000
      2 C3           1.3820     0.0000     0.0000 ca         1 1H5      -0.128000
      3 C4           2.0740     0.0000     1.1990 ca         1 1H5       0.138900
      4 C5           1.3840    -0.0000     2.4000 ca         1 1H5      -0.152300
      5 C6           0.0040    -0.0010     2.4040 ca         1 1H5      -0.141000
      6 C8           2.1420    -0.0010     3.7040 c3         1 1H5       0.158500
      7 C9           3.0190     1.2490     3.7830 c3         1 1H5       0.186900
      8 C10          3.0280    -1.2480     3.7770 c3         1 1H5       0.103600
      9 C11          2.1220    -2.4640     4.0260 c3         1 1H5       0.127400
     10 C13          0.9060    -1.0560     5.4990 c2         1 1H5       0.654500
     11 N14          1.1940    -0.0020     4.8150 n2         1 1H5      -0.622900
     12 C1          -0.6930    -0.0010     1.2030 ca         1 1H5       0.060600
     13 F7           3.4250     0.0000     1.1970 f          1 1H5      -0.115900
     14 O12          1.4500    -2.2660     5.2750 os         1 1H5      -0.429400
     15 F15          3.9410    -1.1180     4.8280 f          1 1H5      -0.213300
     16 N16         -0.0090    -0.9370     6.5160 nz         1 1H5      -0.730600
     17 N17         -2.0920     0.0040     1.2050 ns         1 1H5      -0.468100
     18 C18         -2.7700    -0.6320     0.2280 c          1 1H5       0.579600
     19 C19         -4.2470    -0.5290     0.1640 ca         1 1H5       0.370800
     20 O20         -2.1690    -1.2900    -0.5980 o          1 1H5      -0.577100
     21 N21         -4.8930     0.1970     1.0680 nb         1 1H5      -0.698000
     22 C22         -6.2000     0.3180     1.0520 ca         1 1H5       0.450200
     23 C23         -6.9660    -0.3200     0.0690 ca         1 1H5      -0.099300
     24 C24         -6.3180    -1.0940    -0.9000 ca         1 1H5      -0.062000
     25 C25         -4.9380    -1.1910    -0.8500 ca         1 1H5      -0.181300
     26 C26         -8.3920    -0.1860     0.0580 cg         1 1H5       0.216800
     27 N27         -9.5210    -0.0670     0.0640 n1         1 1H5      -0.309800
     28 F28          3.9250     1.2530     2.7170 f          1 1H5      -0.207300
     29 H1          -0.5410     0.0600    -0.9370 ha         1 1H5       0.183000
     30 H2           1.9230     0.0160    -0.9380 ha         1 1H5       0.174000
     31 H3          -0.5340     0.0650     3.3420 ha         1 1H5       0.122000
     32 H4           3.5630     1.2500     4.7200 h1         1 1H5       0.074200
     33 H5           2.3940     2.1330     3.7290 h1         1 1H5       0.074200
     34 H6           3.5570    -1.3750     2.8400 h1         1 1H5       0.131700
     35 H7           1.3940    -2.5460     3.2290 h1         1 1H5       0.110200
     36 H8           2.7240    -3.3630     4.0740 h1         1 1H5       0.110200
     37 H9           0.2110    -1.5910     7.2410 hn         1 1H5       0.483467
     38 H10          0.0210    -0.0070     6.8850 hn         1 1H5       0.483467
     39 H11         -2.5890     0.5010     1.9170 hn         1 1H5       0.347500
     40 H12         -6.6920     0.9200     1.8060 h4         1 1H5       0.043100
     41 H13         -6.8820    -1.6000    -1.6740 ha         1 1H5       0.168000
     42 H14         -4.4020    -1.7820    -1.5830 ha         1 1H5       0.177000
     43 H163        -0.9260    -1.1330     6.1650 hn         1 1H5       0.483467
@<TRIPOS>BOND
     1    13     3 1   
     2    15     8 1   
     3     8     9 1   
     4     8     6 1   
     5    28     7 1   
     6     7     6 1   
     7     3     2 ar  
     8     3     4 ar  
     9     9    14 1   
    10     2     1 ar  
    11     6     4 1   
    12     6    11 1   
    13     4     5 ar  
    14    14    10 1   
    15     1    12 ar  
    16    11    10 2   
    17    10    16 1   
    18     5    12 ar  
    19    12    17 1   
    20    20    18 2   
    21    17    18 1   
    22    18    19 1   
    23    19    25 ar  
    24    19    21 ar  
    25    25    24 ar  
    26    21    22 ar  
    27    24    23 ar  
    28    22    23 ar  
    29    23    26 1   
    30    26    27 3   
    31     1    29 1   
    32     2    30 1   
    33     5    31 1   
    34     7    32 1   
    35     7    33 1   
    36     8    34 1   
    37     9    35 1   
    38     9    36 1   
    39    16    37 1   
    40    16    38 1   
    41    17    39 1   
    42    22    40 1   
    43    24    41 1   
    44    25    42 1   
    45    43    16 1   
@<TRIPOS>SUBSTRUCTURE
     1 1H5         1 TEMP              0 ****  ****    0 ROOT
