@<TRIPOS>MOLECULE
1H5
   43    45     1     0     0
SMALL
bcc


@<TRIPOS>ATOM
      1 C2          -0.1750    -0.4120     0.1100 ca         1 1H5      -0.105000
      2 C3           1.2060    -0.3930     0.0280 ca         1 1H5      -0.119000
      3 C4           2.0000    -0.2600     1.1840 ca         1 1H5       0.098900
      4 C5           1.3940    -0.1630     2.4570 ca         1 1H5      -0.125300
      5 C6          -0.0030    -0.1660     2.5230 ca         1 1H5      -0.159000
      6 C8           2.2400    -0.0180     3.7110 c3         1 1H5       0.141500
      7 C9           3.0380     1.3360     3.5720 c3         1 1H5       0.182900
      8 C10          3.2630    -1.2170     3.7980 c3         1 1H5       0.110600
      9 C11          2.5400    -2.4700     4.3180 c3         1 1H5       0.101400
     10 C13          1.3850    -0.9630     5.7220 c2         1 1H5       0.663500
     11 N14          1.4380     0.0610     4.9380 n2         1 1H5      -0.557900
     12 C1          -0.8090    -0.2900     1.3680 ca         1 1H5       0.079600
     13 F7           3.3480    -0.2270     1.0290 f          1 1H5      -0.135900
     14 O12          1.9150    -2.2380     5.6010 os         1 1H5      -0.434400
     15 F15          4.3260    -0.8950     4.6200 f          1 1H5      -0.201300
     16 N16          0.7080    -0.9000     7.0430 nz         1 1H5      -0.790600
     17 N17         -2.2020    -0.2590     1.5160 ns         1 1H5      -0.461100
     18 C18         -3.1300    -0.7280     0.5930 c          1 1H5       0.582600
     19 C19         -4.5920    -0.6200     0.9560 ca         1 1H5       0.356800
     20 O20         -2.8000    -1.2090    -0.5050 o          1 1H5      -0.566100
     21 N21         -4.9690    -0.4910     2.2550 nb         1 1H5      -0.674000
     22 C22         -6.2800    -0.4220     2.5170 ca         1 1H5       0.431200
     23 C23         -7.2800    -0.4730     1.5120 ca         1 1H5      -0.089300
     24 C24         -6.8790    -0.6060     0.1780 ca         1 1H5      -0.058000
     25 C25         -5.5120    -0.6830    -0.1080 ca         1 1H5      -0.179300
     26 C26         -8.6490    -0.3910     1.8690 cg         1 1H5       0.211800
     27 N27         -9.7720    -0.3240     2.1630 n1         1 1H5      -0.306800
     28 F28          3.7380     1.6660     4.7080 f          1 1H5      -0.218300
     29 H1          -0.7690    -0.5210    -0.8160 ha         1 1H5       0.195000
     30 H2           1.7050    -0.4740    -0.9530 ha         1 1H5       0.175000
     31 H3          -0.5090    -0.0460     3.4940 ha         1 1H5       0.131000
     32 H4           2.3070     2.1570     3.3350 h1         1 1H5       0.086200
     33 H5           3.7630     1.2020     2.7210 h1         1 1H5       0.086200
     34 H6           3.6670    -1.4430     2.7680 h1         1 1H5       0.127700
     35 H7           1.7460    -2.7960     3.5980 h1         1 1H5       0.111700
     36 H8           3.2620    -3.3030     4.5420 h1         1 1H5       0.111700
     37 H9           0.1960    -0.0140     7.1490 hn         1 1H5       0.486800
     38 H10          1.4310    -0.9760     7.7720 hn         1 1H5       0.486800
     39 H11         -2.5390     0.0640     2.3970 hn         1 1H5       0.338500
     40 H12         -6.5570    -0.3200     3.5830 h4         1 1H5       0.042100
     41 H13         -7.6230    -0.6520    -0.6330 ha         1 1H5       0.171000
     42 H14         -5.1520    -0.8020    -1.1430 ha         1 1H5       0.184000
     43 H163         0.0640    -1.6970     7.1190 hn         1 1H5       0.486800
@<TRIPOS>BOND
     1     1     2 ar  
     2     1    12 ar  
     3     1    29 1   
     4     2     3 ar  
     5     2    30 1   
     6     3     4 ar  
     7     3    13 1   
     8     4     5 ar  
     9     4     6 1   
    10     5    12 ar  
    11     5    31 1   
    12     6     7 1   
    13     6     8 1   
    14     6    11 1   
    15     7    28 1   
    16     7    32 1   
    17     7    33 1   
    18     8     9 1   
    19     8    15 1   
    20     8    34 1   
    21     9    14 1   
    22     9    35 1   
    23     9    36 1   
    24    10    11 2   
    25    10    14 1   
    26    10    16 1   
    27    12    17 1   
    28    16    37 1   
    29    16    38 1   
    30    16    43 1   
    31    17    18 1   
    32    17    39 1   
    33    18    19 1   
    34    18    20 2   
    35    19    21 ar  
    36    19    25 ar  
    37    21    22 ar  
    38    22    23 ar  
    39    22    40 1   
    40    23    24 ar  
    41    23    26 1   
    42    24    25 ar  
    43    24    41 1   
    44    25    42 1   
    45    26    27 3   
@<TRIPOS>SUBSTRUCTURE
     1 1H5         1 TEMP              0 ****  ****    0 ROOT
