@<TRIPOS>MOLECULE
1H6
   43    45     1     0     0
SMALL
bcc


@<TRIPOS>ATOM
      1 C13          0.0000     0.0000     0.0000 c2         1 1H6       0.370500
      2 C3          -1.2630     3.3880     4.6880 ca         1 1H6      -0.087000
      3 C2          -2.3200     3.9420     3.9930 ca         1 1H6      -0.039000
      4 C1          -2.6820     3.4270     2.7550 ca         1 1H6      -0.111400
      5 C4          -0.5600     2.3240     4.1490 ca         1 1H6       0.103900
      6 C5          -0.9150     1.8130     2.9110 ca         1 1H6      -0.142300
      7 C6          -1.9790     2.3560     2.2170 ca         1 1H6      -0.073000
      8 C10          1.3220     1.0510     2.1560 c3         1 1H6       0.123600
      9 C8          -0.1480     0.6550     2.3260 c3         1 1H6       0.131500
     10 C11          2.0040     0.0000     1.2710 c3         1 1H6       0.155400
     11 O12          1.3450     0.0000     0.0000 os         1 1H6      -0.358400
     12 N14         -0.7170     0.2990     1.0290 n2         1 1H6      -0.463900
     13 F15          1.4000     2.3070     1.5450 f          1 1H6      -0.203300
     14 N16         -0.6470    -0.3300    -1.1650 nz         1 1H6       0.209400
     15 N17         -3.7530     3.9860     2.0490 ns         1 1H6      -0.034100
     16 C18         -4.0050     5.3070     2.1420 c          1 1H6       0.491600
     17 C19         -5.2060     5.8790     1.4910 ca         1 1H6       0.298800
     18 O20         -3.2480     6.0280     2.7620 o          1 1H6      -0.609100
     19 N21         -6.0310     5.0830     0.8220 nb         1 1H6      -0.542000
     20 C22         -7.1080     5.5430     0.2280 ca         1 1H6       0.413200
     21 C23         -7.4260     6.9050     0.2810 ca         1 1H6      -0.090300
     22 C24         -6.5790     7.7740     0.9770 ca         1 1H6      -0.037000
     23 C25         -5.4580     7.2470     1.5930 ca         1 1H6      -0.140300
     24 C26         -8.6010     7.4010    -0.3700 cg         1 1H6       0.201800
     25 N27         -9.5450     7.7810    -0.8770 n1         1 1H6      -0.324800
     26 H1          -1.0220     3.5850     5.7260 ha         1 1H6       0.134000
     27 H2          -2.9330     4.7160     4.4380 ha         1 1H6       0.147000
     28 H3          -2.4110     1.8100     1.3880 ha         1 1H6       0.110000
     29 H4           1.8050     1.0800     3.1250 h1         1 1H6       0.085700
     30 H8           3.0840     0.0020     1.1930 h1         1 1H6       0.063700
     31 H9           2.1350    -0.8230     1.9630 h1         1 1H6       0.063700
     32 H10         -0.0800    -0.2300    -1.9840 hn         1 1H6       0.226133
     33 H11         -1.4560     0.2440    -1.3000 hn         1 1H6       0.226133
     34 H12         -4.4540     3.2770     1.9700 hn         1 1H6       0.180500
     35 H13         -7.9150     5.2450    -0.4310 h4         1 1H6       0.012100
     36 H14         -6.8200     8.8290     1.0190 ha         1 1H6       0.130000
     37 H15         -4.5280     7.7970     1.6610 ha         1 1H6       0.146000
     38 C9          -0.2440    -0.5470     3.2680 c3         1 1H6       0.007900
     39 H5           0.3910    -0.3500     4.1230 hc         1 1H6       0.041367
     40 H6          -1.2760    -0.3840     3.5570 hc         1 1H6       0.041367
     41 H7           0.1330    -1.2890     2.5740 hc         1 1H6       0.041367
     42 H163        -0.8170    -1.3140    -1.0890 hn         1 1H6       0.226133
     43 F7           0.4740     1.7840     4.8300 f          1 1H6      -0.124900
@<TRIPOS>BOND
     1     1    11 1   
     2     1    12 2   
     3     1    14 1   
     4     2     3 ar  
     5     2     5 ar  
     6     2    26 1   
     7     3     4 ar  
     8     3    27 1   
     9     4     7 ar  
    10     4    15 1   
    11     5     6 ar  
    12     5    43 1   
    13     6     7 ar  
    14     6     9 1   
    15     7    28 1   
    16     8     9 1   
    17     8    10 1   
    18     8    13 1   
    19     8    29 1   
    20     9    12 1   
    21     9    38 1   
    22    10    11 1   
    23    10    30 1   
    24    10    31 1   
    25    14    32 1   
    26    14    33 1   
    27    14    42 1   
    28    15    16 1   
    29    15    34 1   
    30    16    17 1   
    31    16    18 2   
    32    17    19 ar  
    33    17    23 ar  
    34    19    20 ar  
    35    20    21 ar  
    36    20    35 1   
    37    21    22 ar  
    38    21    24 1   
    39    22    23 ar  
    40    22    36 1   
    41    23    37 1   
    42    24    25 3   
    43    38    39 1   
    44    38    40 1   
    45    38    41 1   
@<TRIPOS>SUBSTRUCTURE
     1 1H6         1 TEMP              0 ****  ****    0 ROOT
