@<TRIPOS>MOLECULE
1H6
   43    45     1     0     0
SMALL
bcc


@<TRIPOS>ATOM
      1 C13         -0.4220    -0.3330     0.1010 c2         1 1H6       0.636500
      2 C3          -0.8590     0.5150     5.7460 ca         1 1H6      -0.128000
      3 C2          -1.0000     1.8410     5.3890 ca         1 1H6      -0.099000
      4 C1          -0.8350     2.2290     4.0370 ca         1 1H6       0.075600
      5 C4          -0.5550    -0.4780     4.7860 ca         1 1H6       0.144900
      6 C5          -0.3950    -0.1220     3.4320 ca         1 1H6      -0.111300
      7 C6          -0.5350     1.2320     3.0870 ca         1 1H6      -0.175000
      8 C10          1.4620    -1.0310     1.9390 c3         1 1H6       0.127600
      9 C8          -0.0710    -1.1170     2.3290 c3         1 1H6       0.186500
     10 C11          1.7300     0.1300     0.9650 c3         1 1H6       0.092400
     11 O12          0.8800     0.0530    -0.1960 os         1 1H6      -0.439400
     12 N14         -0.9330    -0.8530     1.1630 n2         1 1H6      -0.541900
     13 F15          2.2620    -0.9030     3.0520 f          1 1H6      -0.184300
     14 N16         -1.2370    -0.0830    -1.1170 nz         1 1H6      -0.789600
     15 N17         -0.9290     3.5620     3.6120 ns         1 1H6      -0.461100
     16 C18         -1.5720     4.5910     4.2910 c          1 1H6       0.581600
     17 C19         -1.5950     5.9510     3.6350 ca         1 1H6       0.357800
     18 O20         -2.0970     4.4360     5.4060 o          1 1H6      -0.565100
     19 N21         -1.4040     6.0720     2.2960 nb         1 1H6      -0.677000
     20 C22         -1.4580     7.3020     1.7680 ca         1 1H6       0.429200
     21 C23         -1.7020     8.4690     2.5370 ca         1 1H6      -0.090300
     22 C24         -1.8980     8.3320     3.9160 ca         1 1H6      -0.057000
     23 C25         -1.8470     7.0520     4.4770 ca         1 1H6      -0.179300
     24 C26         -1.7430     9.7380     1.9060 cg         1 1H6       0.212800
     25 N27         -1.7760    10.7780     1.3860 n1         1 1H6      -0.308800
     26 C9          -0.3160    -2.5810     2.7440 c3         1 1H6      -0.094100
     27 F7          -0.4160    -1.7460     5.2350 f          1 1H6      -0.125900
     28 H1          -0.9790     0.2080     6.7980 ha         1 1H6       0.173000
     29 H2          -1.2460     2.5890     6.1650 ha         1 1H6       0.193000
     30 H3          -0.4040     1.5340     2.0360 ha         1 1H6       0.105000
     31 H4           1.7330    -2.0000     1.4190 h1         1 1H6       0.084700
     32 H8           2.7640     0.0650     0.5270 h1         1 1H6       0.107700
     33 H9           1.5770     1.1250     1.4600 h1         1 1H6       0.107700
     34 H10         -0.8610    -0.6590    -1.8810 hn         1 1H6       0.484800
     35 H11         -2.2240    -0.3210    -0.9480 hn         1 1H6       0.484800
     36 H12         -0.5840     3.7510     2.6970 hn         1 1H6       0.332500
     37 H13         -1.3010     7.3700     0.6760 h4         1 1H6       0.040100
     38 H14         -2.0920     9.2120     4.5490 ha         1 1H6       0.171000
     39 H15         -2.0090     6.8950     5.5560 ha         1 1H6       0.185000
     40 H5          -0.2350    -3.2670     1.8660 hc         1 1H6       0.075033
     41 H6          -1.3270    -2.6980     3.2030 hc         1 1H6       0.075033
     42 H7           0.4650    -2.8720     3.4910 hc         1 1H6       0.075033
     43 H163        -1.1500     0.9100    -1.3670 hn         1 1H6       0.484800
@<TRIPOS>BOND
     1     1    11 1   
     2     1    12 2   
     3     1    14 1   
     4     2     3 ar  
     5     2     5 ar  
     6     2    28 1   
     7     3     4 ar  
     8     3    29 1   
     9     4     7 ar  
    10     4    15 1   
    11     5     6 ar  
    12     5    27 1   
    13     6     7 ar  
    14     6     9 1   
    15     7    30 1   
    16     8     9 1   
    17     8    10 1   
    18     8    13 1   
    19     8    31 1   
    20     9    12 1   
    21     9    26 1   
    22    10    11 1   
    23    10    32 1   
    24    10    33 1   
    25    14    34 1   
    26    14    35 1   
    27    14    43 1   
    28    15    16 1   
    29    15    36 1   
    30    16    17 1   
    31    16    18 2   
    32    17    19 ar  
    33    17    23 ar  
    34    19    20 ar  
    35    20    21 ar  
    36    20    37 1   
    37    21    22 ar  
    38    21    24 1   
    39    22    23 ar  
    40    22    38 1   
    41    23    39 1   
    42    24    25 3   
    43    26    40 1   
    44    26    41 1   
    45    26    42 1   
@<TRIPOS>SUBSTRUCTURE
     1 1H6         1 TEMP              0 ****  ****    0 ROOT
