@<TRIPOS>MOLECULE
molecule
   43    45     1     0     0
SMALL
bcc


@<TRIPOS>ATOM
      1 C2           0.0000     0.0000     0.0000 ca         1 1H7      -0.062000
      2 C4           0.0910     0.0120     2.3940 ca         1 1H7       0.374800
      3 C6           2.0790     0.0000     1.2230 ca         1 1H7       0.449200
      4 C7          -0.6050     0.0190     3.7020 c          1 1H7       0.580600
      5 C10          2.1260    -0.0010    -1.2350 cg         1 1H7       0.217800
      6 C1           1.4000     0.0000     0.0000 ca         1 1H7      -0.102300
      7 C3          -0.6570     0.0060     1.2180 ca         1 1H7      -0.181300
      8 N5           1.4180     0.0120     2.3580 nb         1 1H7      -0.698000
      9 N8           0.1090     0.0250     4.8450 ns         1 1H7      -0.464100
     10 O9          -1.8190     0.0200     3.7440 o          1 1H7      -0.580100
     11 N11          2.7090     0.0170    -2.2090 n1         1 1H7      -0.312800
     12 C12         -0.5440     0.1300     6.0780 ca         1 1H7       0.052600
     13 C13         -1.7830    -0.4700     6.2610 ca         1 1H7      -0.078000
     14 C14         -2.4260    -0.3650     7.4780 ca         1 1H7      -0.133000
     15 C15         -1.8370     0.3360     8.5160 ca         1 1H7       0.133900
     16 C16         -0.6010     0.9340     8.3360 ca         1 1H7      -0.145300
     17 C17          0.0490     0.8280     7.1220 ca         1 1H7      -0.125000
     18 C18          0.0380     1.6980     9.4670 c3         1 1H7       0.219500
     19 C19          0.2540     0.7590    10.6560 c3         1 1H7      -0.081100
     20 C20         -0.0780     3.7930    10.7960 c3         1 1H7      -0.160600
     21 O21          1.0270     4.2990    10.0410 os         1 1H7      -0.405400
     22 C22          1.7380     3.4160     9.3150 c2         1 1H7       0.634500
     23 N23          1.3270     2.2290     9.0280 n2         1 1H7      -0.618900
     24 N24          2.9730     3.8020     8.8560 nz         1 1H7      -0.729600
     25 C25         -0.8810     2.8490     9.8890 c3         1 1H7       0.299600
     26 F26         -1.9820     2.3440    10.5870 f          1 1H7      -0.164300
     27 F27         -2.4680     0.4370     9.7070 f          1 1H7      -0.125900
     28 H1          -0.5420     0.0470    -0.9370 ha         1 1H7       0.167000
     29 H2           3.1620    -0.0030     1.2410 h4         1 1H7       0.041100
     30 H3          -1.7380     0.0550     1.2500 ha         1 1H7       0.177000
     31 H4           1.1090    -0.0100     4.8110 hn         1 1H7       0.347500
     32 H5          -2.2320    -1.0410     5.4580 ha         1 1H7       0.188000
     33 H6          -3.4000    -0.8190     7.6170 ha         1 1H7       0.171000
     34 H7           1.0460     1.2360     7.0040 ha         1 1H7       0.135000
     35 H8           0.6280    -0.1940    10.3010 hc         1 1H7       0.075700
     36 H9           0.9740     1.1980    11.3370 hc         1 1H7       0.075700
     37 H10         -0.6860     0.6080    11.1730 hc         1 1H7       0.075700
     38 H11         -0.8510     3.4710    10.1090 h1         1 1H7       0.148200
     39 H12         -0.4660     4.5880    11.4210 h1         1 1H7       0.148200
     40 H13          3.4670     4.2770     9.5850 hn         1 1H7       0.481800
     41 H14          2.8610     4.4160     8.0730 hn         1 1H7       0.481800
     42 H15         -1.2150     3.3870     9.0100 h1         1 1H7       0.007700
     43 H243         3.4500     3.0080     8.4760 hn         1 1H7       0.481800
@<TRIPOS>BOND
     1    27    15 1
     2    26    25 1
     3    25    20 1
     4    25    18 1
     5    15    14 ar
     6    15    16 ar
     7    20    21 1
     8    19    18 1
     9    14    13 ar
    10    18    16 1
    11    18    23 1
    12    16    17 ar
    13    21    22 1
    14    13    12 ar
    15    23    22 2
    16    22    24 1
    17    17    12 ar
    18    12     9 1
    19    10     4 2
    20     9     4 1
    21     4     2 1
    22     2     7 ar
    23     2     8 ar
    24     7     1 ar
    25     8     3 ar
    26     1     6 ar
    27     3     6 ar
    28     6     5 1
    29     5    11 3
    30     1    28 1
    31     3    29 1
    32     7    30 1
    33     9    31 1
    34    13    32 1
    35    14    33 1
    36    17    34 1
    37    19    35 1
    38    19    36 1
    39    19    37 1
    40    20    38 1
    41    20    39 1
    42    24    40 1
    43    24    41 1
    44    25    42 1
    45    43    24 1
@<TRIPOS>SUBSTRUCTURE
     1 1H7         1 TEMP              0 ****  ****    0 ROOT
