@<TRIPOS>MOLECULE
1H7
   43    46     1     0     0
SMALL
bcc


@<TRIPOS>ATOM
      1 C2           0.0000     0.0000     0.0000 c2         1 1H7      -0.046000
      2 C4           0.0910     0.0120     2.3940 c2         1 1H7      -0.107000
      3 C6           2.0790     0.0000     1.2230 c2         1 1H7      -0.044000
      4 C7          -0.6050     0.0190     3.7020 c2         1 1H7       0.264000
      5 C10          2.1260    -0.0010    -1.2350 c1         1 1H7      -0.128000
      6 C1           1.4000     0.0000     0.0000 c2         1 1H7       0.024000
      7 C3          -0.6570     0.0060     1.2180 c2         1 1H7      -0.071000
      8 N5           1.4180     0.0120     2.3580 n2         1 1H7      -0.057000
      9 N8           0.1090     0.0250     4.8450 ns         1 1H7       0.125000
     10 O9          -1.8190     0.0200     3.7440 o          1 1H7      -0.384000
     11 N11          2.7090     0.0170    -2.2090 n1         1 1H7       0.000000
     12 C12         -0.5440     0.1300     6.0780 ca         1 1H7      -0.078000
     13 C13         -1.7830    -0.4700     6.2610 ca         1 1H7      -0.053000
     14 C14         -2.4260    -0.3650     7.4780 ca         1 1H7      -0.090000
     15 C15         -1.8370     0.3360     8.5160 ca         1 1H7       0.081000
     16 C16         -0.6010     0.9340     8.3360 ca         1 1H7      -0.141000
     17 C17          0.0490     0.8280     7.1220 ca         1 1H7      -0.110000
     18 C18          0.0380     1.6980     9.4670 c3         1 1H7       0.027000
     19 C19          0.2540     0.7590    10.6560 c3         1 1H7      -0.119000
     20 C20         -0.0780     3.7930    10.7960 c3         1 1H7      -0.137000
     21 O21          1.0270     4.2990    10.0410 os         1 1H7      -0.174000
     22 C22          1.7380     3.4160     9.3150 c2         1 1H7      -0.209000
     23 N23          1.3270     2.2290     9.0280 n2         1 1H7      -0.043000
     24 N24          2.9730     3.8020     8.8560 nz         1 1H7       0.974000
     25 C25         -0.8810     2.8490     9.8890 DU         1 1H7       0.330000
     26 F26         -1.9820     2.3440    10.5870 f          1 1H7      -0.099000
     27 F27         -2.4680     0.4370     9.7070 f          1 1H7      -0.084000
     28 H1          -0.5420     0.0470    -0.9370 ha         1 1H7       0.131000
     29 H2           3.1620    -0.0030     1.2410 h4         1 1H7       0.131000
     30 H3          -1.7380     0.0550     1.2500 ha         1 1H7       0.145000
     31 H4           1.1090    -0.0100     4.8110 hn         1 1H7       0.101000
     32 H5          -2.2320    -1.0410     5.4580 ha         1 1H7       0.160000
     33 H6          -3.4000    -0.8190     7.6170 ha         1 1H7       0.137000
     34 H7           1.0460     1.2360     7.0040 ha         1 1H7       0.106000
     35 H8           0.6280    -0.1940    10.3010 hc         1 1H7       0.079000
     36 H9           0.9740     1.1980    11.3370 hc         1 1H7       0.079000
     37 H10         -0.6860     0.6080    11.1730 hc         1 1H7       0.079000
     38 H11         -0.8510     3.4710    10.1090 DU         1 1H7      -0.032000
     39 H12         -0.4660     4.5880    11.4210 h1         1 1H7       0.161000
     40 H13          3.4670     4.2770     9.5850 hn         1 1H7       0.021000
     41 H14          2.8610     4.4160     8.0730 hn         1 1H7       0.021000
     42 H15         -1.2150     3.3870     9.0100 ha         1 1H7       0.009000
     43 H243         3.4500     3.0080     8.4760 hn         1 1H7       0.021000
@<TRIPOS>BOND
     1     1     6 1   
     2     1     7 1   
     3     1    28 1   
     4     2     4 1   
     5     2     7 1   
     6     2     8 1   
     7     3     6 1   
     8     3     8 1   
     9     3    29 1   
    10     4     9 1   
    11     4    10 1   
    12     5     6 1   
    13     5    11 1   
    14     7    30 1   
    15     9    12 1   
    16     9    31 1   
    17    12    13 1   
    18    12    17 1   
    19    13    14 1   
    20    13    32 1   
    21    14    15 1   
    22    14    33 1   
    23    15    16 1   
    24    15    27 1   
    25    16    17 1   
    26    16    18 1   
    27    17    34 1   
    28    18    19 1   
    29    18    23 1   
    30    18    25 1   
    31    19    35 1   
    32    19    36 1   
    33    19    37 1   
    34    20    21 1   
    35    20    25 1   
    36    20    38 1   
    37    20    39 1   
    38    21    22 1   
    39    22    23 1   
    40    22    24 1   
    41    24    40 1   
    42    24    41 1   
    43    24    43 1   
    44    25    26 1   
    45    25    38 1   
    46    25    42 1   
@<TRIPOS>SUBSTRUCTURE
     1 1H7         1 TEMP              0 ****  ****    0 ROOT
