@<TRIPOS>MOLECULE
1H7
   43    45     1     0     0
SMALL
bcc


@<TRIPOS>ATOM
      1 C2          -0.1900    -0.7780     0.0020 ca         1 1H7      -0.058000
      2 C4           0.2510     0.1870     2.1720 ca         1 1H7       0.357800
      3 C6           1.9940     0.0330     0.6670 ca         1 1H7       0.430200
      4 C7          -0.3080     0.6020     3.5120 c          1 1H7       0.582600
      5 C10          1.6900    -0.9290    -1.5740 cg         1 1H7       0.212800
      6 C1           1.1570    -0.5640    -0.3120 ca         1 1H7      -0.090300
      7 C3          -0.6550    -0.3950     1.2640 ca         1 1H7      -0.180300
      8 N5           1.5600     0.4000     1.8790 nb         1 1H7      -0.674000
      9 N8           0.5900     0.7540     4.5620 ns         1 1H7      -0.461100
     10 O9          -1.5310     0.7770     3.6440 o          1 1H7      -0.567100
     11 N11          2.1290    -1.2270    -2.6090 n1         1 1H7      -0.307800
     12 C12          0.2650     1.1470     5.8680 ca         1 1H7       0.077600
     13 C13         -1.0370     1.0160     6.4050 ca         1 1H7      -0.106000
     14 C14         -1.2820     1.3800     7.7170 ca         1 1H7      -0.121000
     15 C15         -0.2540     1.8910     8.5330 ca         1 1H7       0.101900
     16 C16          1.0490     2.0620     8.0130 ca         1 1H7      -0.122300
     17 C17          1.2880     1.6710     6.6930 ca         1 1H7      -0.162000
     18 C18          2.1680     2.6040     8.8900 c3         1 1H7       0.187500
     19 C19          2.4050     1.6170    10.0500 c3         1 1H7      -0.088100
     20 C20          1.8100     5.0690     8.3840 c3         1 1H7       0.101400
     21 O21          3.1300     5.1510     7.7960 os         1 1H7      -0.438400
     22 C22          3.7760     3.9260     7.7310 c2         1 1H7       0.657500
     23 N23          3.4410     2.7560     8.1600 n2         1 1H7      -0.560900
     24 N24          5.0840     4.1710     7.0680 nz         1 1H7      -0.791600
     25 C25          1.7370     4.0030     9.4880 c3         1 1H7       0.105600
     26 F26          2.5480     4.3510    10.5520 f          1 1H7      -0.212300
     27 F27         -0.5600     2.2040     9.8170 f          1 1H7      -0.134900
     28 H1          -0.8750    -1.2360    -0.7300 ha         1 1H7       0.171000
     29 H2           3.0630     0.2200     0.4550 h4         1 1H7       0.042100
     30 H3          -1.7110    -0.5310     1.5490 ha         1 1H7       0.184000
     31 H4           1.5620     0.6480     4.3690 hn         1 1H7       0.337500
     32 H5          -1.8660     0.6220     5.7890 ha         1 1H7       0.193000
     33 H6          -2.2920     1.2640     8.1450 ha         1 1H7       0.173000
     34 H7           2.3030     1.7410     6.2710 ha         1 1H7       0.128000
     35 H8           2.6630     0.6060     9.6540 hc         1 1H7       0.075033
     36 H9           3.2270     1.9750    10.7160 hc         1 1H7       0.075033
     37 H10          1.4660     1.5470    10.6510 hc         1 1H7       0.075033
     38 H11          1.6570     6.1050     8.7940 h1         1 1H7       0.110700
     39 H12          1.0830     4.8390     7.5640 h1         1 1H7       0.110700
     40 H13          5.6080     3.2930     6.9590 hn         1 1H7       0.485133
     41 H14          4.9070     4.5970     6.1500 hn         1 1H7       0.485133
     42 H15          0.6730     3.9410     9.8580 h1         1 1H7       0.130700
     43 H243         5.6190     4.8300     7.6500 hn         1 1H7       0.485133
@<TRIPOS>BOND
     1     1     6 ar  
     2     1     7 ar  
     3     1    28 1   
     4     2     4 1   
     5     2     7 ar  
     6     2     8 ar  
     7     3     6 ar  
     8     3     8 ar  
     9     3    29 1   
    10     4     9 1   
    11     4    10 2   
    12     5     6 1   
    13     5    11 3   
    14     7    30 1   
    15     9    12 1   
    16     9    31 1   
    17    12    13 ar  
    18    12    17 ar  
    19    13    14 ar  
    20    13    32 1   
    21    14    15 ar  
    22    14    33 1   
    23    15    16 ar  
    24    15    27 1   
    25    16    17 ar  
    26    16    18 1   
    27    17    34 1   
    28    18    19 1   
    29    18    23 1   
    30    18    25 1   
    31    19    35 1   
    32    19    36 1   
    33    19    37 1   
    34    20    21 1   
    35    20    25 1   
    36    20    38 1   
    37    20    39 1   
    38    21    22 1   
    39    22    23 2   
    40    22    24 1   
    41    24    40 1   
    42    24    41 1   
    43    24    43 1   
    44    25    26 1   
    45    25    42 1   
@<TRIPOS>SUBSTRUCTURE
     1 1H7         1 TEMP              0 ****  ****    0 ROOT
