@<TRIPOS>MOLECULE
1H8
   43    44     1     0     0
SMALL
bcc


@<TRIPOS>ATOM
      1 C1          -0.1730    -0.3940    -0.0120 c2         1 1H8      -0.020000
      2 C2           1.1280     0.1690    -0.0530 c2         1 1H8      -0.035000
      3 N3           1.8560     0.4210     1.0420 n2         1 1H8      -0.149000
      4 C4           1.3060     0.1200     2.2470 c2         1 1H8      -0.060000
      5 C5           0.0210    -0.4380     2.3870 c2         1 1H8      -0.114000
      6 C6          -0.7290    -0.7000     1.2360 c2         1 1H8      -0.058000
      7 C10         -0.8810    -0.6340    -1.2160 c1         1 1H8      -0.117000
      8 C14          5.5900     1.3690     4.2020 ca         1 1H8      -0.162000
      9 C15          4.8870     0.8700     6.8480 ca         1 1H8      -0.117000
     10 C16          4.3090     0.8450     4.4950 ca         1 1H8       0.089000
     11 C17          3.9690     0.6060     5.8470 ca         1 1H8      -0.108000
     12 C19          7.9020     2.2030     4.8720 c3         1 1H8       0.015000
     13 C23          6.6620     5.1160     4.3780 c3         1 1H8      -0.064000
     14 C25          7.6320     3.5430     2.8370 c2         1 1H8       0.136000
     15 C7           2.0630     0.4010     3.5230 c2         1 1H8       0.366000
     16 O8           1.4510     0.4640     4.6030 o          1 1H8      -0.327000
     17 N9           3.4420     0.5600     3.4320 ns         1 1H8      -0.314000
     18 N11         -1.4610    -0.8310    -2.2050 n1         1 1H8       0.018000
     19 C12          6.5190     1.6560     5.2040 ca         1 1H8      -0.123000
     20 C13          6.1630     1.3840     6.5440 ca         1 1H8       0.063000
     21 F18          7.0250     1.5990     7.5690 f          1 1H8      -0.102000
     22 C20          8.9560     1.1150     5.2360 c3         1 1H8      -0.201000
     23 N21          8.1030     2.5250     3.4530 n2         1 1H8      -0.170000
     24 C22          8.2370     3.4040     5.6820 c1         1 1H8      -0.065000
     25 O24          6.7130     4.5500     3.0600 os         1 1H8      -0.249000
     26 N26          8.0520     3.7510     1.4030 nz         1 1H8      -0.049000
     27 H1           1.6000     0.4260    -1.0210 h4         1 1H8       0.179000
     28 H2          -0.3820    -0.6500     3.3910 ha         1 1H8       0.185000
     29 H3          -1.7370    -1.1360     1.3140 ha         1 1H8       0.171000
     30 H6           2.9750     0.2060     6.1190 ha         1 1H8       0.195000
     31 H7           5.9650     5.9840     4.2330 h1         1 1H8       0.123000
     32 H8           6.2170     4.3700     5.0840 h1         1 1H8       0.123000
     33 H9           3.8540     0.5540     2.5250 hn         1 1H8       0.251000
     34 H10          8.8200     0.8360     6.3080 hc         1 1H8       0.114000
     35 H11          8.8040     0.2100     4.6020 hc         1 1H8       0.114000
     36 H12          9.9920     1.5010     5.0810 hc         1 1H8       0.114000
     37 H13          7.6760     5.4500     4.7110 h1         1 1H8       0.123000
     38 H14          8.1670     3.3190     6.7730 ha         1 1H8       0.111000
     39 H15          7.2210     4.0020     0.8550 hn         1 1H8       0.271667
     40 H16          8.7190     4.5290     1.3800 hn         1 1H8       0.271667
     41 H4           5.8500     1.5380     3.1460 ha         1 1H8       0.124000
     42 H263         8.4890     2.9060     1.0180 hn         1 1H8       0.271667
     43 H5           4.6310     0.6730     7.9030 ha         1 1H8       0.174000
@<TRIPOS>BOND
     1     1     2 1   
     2     1     6 1   
     3     1     7 1   
     4     2     3 1   
     5     2    27 1   
     6     3     4 1   
     7     4     5 1   
     8     4    15 1   
     9     5     6 1   
    10     5    28 1   
    11     6    29 1   
    12     7    18 1   
    13     8    10 1   
    14     8    19 1   
    15     8    41 1   
    16     9    11 1   
    17     9    20 1   
    18     9    43 1   
    19    10    11 1   
    20    10    17 1   
    21    11    30 1   
    22    12    19 1   
    23    12    22 1   
    24    12    23 1   
    25    12    24 1   
    26    13    25 1   
    27    13    31 1   
    28    13    32 1   
    29    13    37 1   
    30    14    23 1   
    31    14    25 1   
    32    14    26 1   
    33    15    16 1   
    34    15    17 1   
    35    17    33 1   
    36    19    20 1   
    37    20    21 1   
    38    22    34 1   
    39    22    35 1   
    40    22    36 1   
    41    24    38 1   
    42    26    39 1   
    43    26    40 1   
    44    26    42 1   
@<TRIPOS>SUBSTRUCTURE
     1 1H8         1 TEMP              0 ****  ****    0 ROOT
