@<TRIPOS>MOLECULE
molecule
   43    45     1     0     0
SMALL
bcc


@<TRIPOS>ATOM
      1 C1           0.0000     0.0000     0.0000 ca         1 1H8      -0.104300
      2 C2           1.4000     0.0000     0.0000 ca         1 1H8       0.449200
      3 N3           2.0700     0.0000     1.1290 nb         1 1H8      -0.697000
      4 C4           1.4570    -0.0000     2.3070 ca         1 1H8       0.375800
      5 C5           0.0650     0.0010     2.3890 ca         1 1H8      -0.182300
      6 C6          -0.6790     0.0060     1.2230 ca         1 1H8      -0.061000
      7 C10         -0.7250     0.0010    -1.2340 cg         1 1H8       0.219800
      8 C14          5.5690    -0.8070     4.6430 ca         1 1H8      -0.122000
      9 C15          4.6770     0.3860     6.9790 ca         1 1H8      -0.127000
     10 C16          4.3690    -0.1080     4.6520 ca         1 1H8       0.053600
     11 C17          3.9240     0.4880     5.8250 ca         1 1H8      -0.085000
     12 C19          7.6180    -1.6690     5.7900 c3         1 1H8       0.225500
     13 C23         10.0880    -1.4190     5.8650 c3         1 1H8       0.147400
     14 C25          9.0230    -2.1670     3.8810 c2         1 1H8       0.671500
     15 C7           2.2620    -0.0050     3.5510 c          1 1H8       0.580600
     16 O8           1.7090    -0.0090     4.6330 o          1 1H8      -0.581100
     17 N9           3.6080    -0.0060     3.4830 ns         1 1H8      -0.465100
     18 N11         -1.2880    -0.0130    -2.2210 n1         1 1H8      -0.315800
     19 C12          6.3150    -0.9120     5.8000 ca         1 1H8      -0.139300
     20 C13          5.8680    -0.3200     6.9690 ca         1 1H8       0.130900
     21 F18          6.4940    -0.8210     8.0360 f          1 1H8      -0.138900
     22 C20          7.5390    -2.8310     6.7820 c3         1 1H8      -0.085100
     23 N21          7.8660    -2.1920     4.4480 n2         1 1H8      -0.580900
     24 C22          8.7570    -0.7290     6.1970 c3         1 1H8      -0.157400
     25 O24         10.1250    -1.6500     4.4530 os         1 1H8      -0.478400
     26 N26          9.5710    -2.7670     2.6200 nz         1 1H8      -0.765600
     27 H1           1.9410    -0.0060    -0.9380 h4         1 1H8       0.040100
     28 H2          -0.4210     0.0340     3.3570 ha         1 1H8       0.178000
     29 H3          -1.7610     0.0500     1.2420 ha         1 1H8       0.166000
     30 H6           2.9930     1.0410     5.8330 ha         1 1H8       0.187000
     31 H7          10.9000    -0.7440     6.1040 h1         1 1H8       0.092200
     32 H8          10.1780    -2.3130     6.4700 h1         1 1H8       0.092200
     33 H9           4.0610     0.1370     2.6020 hn         1 1H8       0.346500
     34 H10          7.8460    -2.4890     7.7630 hc         1 1H8       0.065367
     35 H11          8.1950    -3.6290     6.4560 hc         1 1H8       0.065367
     36 H12          6.5210    -3.1980     6.8290 hc         1 1H8       0.065367
     37 H13          8.6230    -0.4480     7.2350 hc         1 1H8       0.096200
     38 H14          8.7140     0.1600     5.5790 hc         1 1H8       0.096200
     39 H15          9.5610    -2.0800     1.8920 hn         1 1H8       0.477800
     40 H16         10.5110    -3.0720     2.7770 hn         1 1H8       0.477800
     41 H4           5.9170    -1.2730     3.7290 ha         1 1H8       0.140000
     42 H263         8.8730    -3.3440     2.1940 hn         1 1H8       0.477800
     43 H5           4.3330     0.8560     7.8920 ha         1 1H8       0.166000
@<TRIPOS>BOND
     1    21    20 1
     2    24    13 1
     3    24    12 1
     4    20     9 ar
     5    20    19 ar
     6    13    25 1
     7    22    12 1
     8     9    11 ar
     9    12    19 1
    10    12    23 1
    11    19     8 ar
    12    25    14 1
    13    11    10 ar
    14    23    14 2
    15    14    26 1
    16     8    10 ar
    17    10    17 1
    18    16    15 2
    19    17    15 1
    20    15     4 1
    21     4     5 ar
    22     4     3 ar
    23     5     6 ar
    24     3     2 ar
    25     6     1 ar
    26     2     1 ar
    27     1     7 1
    28     7    18 3
    29     2    27 1
    30     5    28 1
    31     6    29 1
    32     8    41 1
    33     9    43 1
    34    11    30 1
    35    13    31 1
    36    13    32 1
    37    17    33 1
    38    22    34 1
    39    22    35 1
    40    22    36 1
    41    24    37 1
    42    24    38 1
    43    26    39 1
    44    26    40 1
    45    42    26 1
@<TRIPOS>SUBSTRUCTURE
     1 1H8         1 TEMP              0 ****  ****    0 ROOT
