@<TRIPOS>MOLECULE
1HC
   11    10     1     0     0
SMALL
bcc


@<TRIPOS>ATOM
      1 C3           0.0000     0.0000     0.0000 c2         1 1HC       0.114000
      2 C2           1.3300     0.0000     0.0000 ce         1 1HC      -0.334200
      3 C1           2.0660     0.0000     1.2740 c          1 1HC       0.338300
      4 O            1.4580     0.0000     2.3270 o          1 1HC      -0.429100
      5 N            3.4130    -0.0000     1.2740 nz         1 1HC       0.211600
      6 H1          -0.5420     0.0000     0.9380 ha         1 1HC       0.110500
      7 H2          -0.5420     0.0000    -0.9380 ha         1 1HC       0.110500
      8 H3           1.8720     0.0000    -0.9380 ha         1 1HC       0.140000
      9 H4           3.7470     0.8170     0.8020 hn         1 1HC       0.245800
     10 H5           3.7470    -0.0000     2.2170 hn         1 1HC       0.245800
     11 HN3          3.7470    -0.8170     0.8020 hn         1 1HC       0.245800
@<TRIPOS>BOND
     1     1     2 2   
     2     1     6 1   
     3     1     7 1   
     4     2     3 1   
     5     2     8 1   
     6     3     4 2   
     7     3     5 1   
     8     5     9 1   
     9     5    10 1   
    10     5    11 1   
@<TRIPOS>SUBSTRUCTURE
     1 1HC         1 TEMP              0 ****  ****    0 ROOT
