@<TRIPOS>MOLECULE
1HC
   11    10     1     0     0
SMALL
bcc


@<TRIPOS>ATOM
      1 C3          -0.0590    -0.0590    -0.0580 c2         1 1HC      -0.074000
      2 C2           1.2740    -0.0590    -0.0360 ce         1 1HC      -0.269200
      3 C1           2.1110     0.0130     1.1580 c          1 1HC       0.560300
      4 O            3.1480    -0.5680     1.4200 o          1 1HC      -0.376100
      5 N            1.6590     0.9980     2.2350 nz         1 1HC      -0.771400
      6 H1          -0.6080    -0.1680    -1.0120 ha         1 1HC       0.155500
      7 H2          -0.7010     0.0200     0.8310 ha         1 1HC       0.155500
      8 H3           1.8790    -0.1850    -0.9600 ha         1 1HC       0.214000
      9 H4           0.7110     0.7730     2.5440 hn         1 1HC       0.468133
     10 H5           2.2960     0.9540     3.0410 hn         1 1HC       0.468133
     11 HN3          1.6670     1.9490     1.8550 hn         1 1HC       0.468133
@<TRIPOS>BOND
     1     1     2 2   
     2     1     6 1   
     3     1     7 1   
     4     2     3 1   
     5     2     8 1   
     6     3     4 2   
     7     3     5 1   
     8     5     9 1   
     9     5    10 1   
    10     5    11 1   
@<TRIPOS>SUBSTRUCTURE
     1 1HC         1 TEMP              0 ****  ****    0 ROOT
