@<TRIPOS>MOLECULE
1HF
   37    40     1     0     0
SMALL
bcc


@<TRIPOS>ATOM
      1 C9          0.2420   -0.4430   -0.0300 cc        1 1HF     -0.116600
      2 C10        -0.5810   -0.0540   -1.0220 cf        1 1HF     -0.134800
      3 C13         1.1400    0.9220   -4.0240 cd        1 1HF      0.258600
      4 C6          5.2470   -0.9370    2.6330 cc        1 1HF      0.478900
      5 C4          4.5340   -0.0790    4.9930 ca        1 1HF      0.050000
      6 C3          5.0100    0.4760    6.1890 ca        1 1HF     -0.286500
      7 N1          3.0060   -1.3700    2.4600 nf        1 1HF     -0.419700
      8 C2          6.3650    0.7400    6.3420 ca        1 1HF      0.012000
      9 C           6.8280   -0.0970    4.1540 ca        1 1HF      0.074600
     10 C1          7.3030    0.4570    5.3350 ca        1 1HF     -0.205000
     11 C5          5.4250   -0.3670    3.9740 ca        1 1HF     -0.271900
     12 N           4.2260   -1.3300    1.9260 nf        1 1HF     -0.380700
     13 C7          1.9610   -1.1120    1.7060 cc        1 1HF      0.483800
     14 C8          6.6680   -1.0100    2.0390 c         1 1HF      0.616200
     15 O           7.0230   -1.4450    0.9390 o         1 1HF     -0.596500
     16 N2          7.5400   -0.4620    2.9920 n         1 1HF     -0.486100
     17 S           1.9350   -0.5390    0.0280 ss        1 1HF     -0.062800
     18 C11        -0.2330    0.3950   -2.3330 cd        1 1HF      0.276500
     19 C12        -0.3470   -0.8780    1.2780 c         1 1HF      0.704700
     20 O1         -1.5550   -0.9280    1.5500 o         1 1HF     -0.595500
     21 N3          0.6450   -1.2600    2.1860 n         1 1HF     -0.481400
     22 O2          1.1180    0.4530   -2.7160 os        1 1HF     -0.343800
     23 C14        -0.1460    1.1580   -4.4740 cc        1 1HF     -0.276300
     24 C15        -1.0320    0.8200   -3.3890 cc        1 1HF     -0.228300
     25 S1          3.8720    0.8440    7.5150 s6        1 1HF      1.462100
     26 O3          2.6250    0.9870    6.8680 o         1 1HF     -0.741533
     27 O4          3.9490   -0.2730    8.3720 o         1 1HF     -0.741533
     28 O5          4.3830    2.0310    8.0860 o         1 1HF     -0.741533
     29 H9         -1.6750   -0.0690   -0.8330 ha        1 1HF      0.166000
     30 H12         2.1360    1.0170   -4.4470 h4        1 1HF      0.057100
     31 H4          3.4500   -0.2650    4.8880 ha        1 1HF      0.171000
     32 H6          6.7130    1.2000    7.2840 ha        1 1HF      0.152000
     33 H7          8.3680    0.6730    5.4840 ha        1 1HF      0.125000
     34 H1          8.5230   -0.4660    2.9210 hn        1 1HF      0.333500
     35 H8          0.4450   -1.4770    3.1370 hn        1 1HF      0.369500
     36 H11        -0.4490    1.5270   -5.4490 ha        1 1HF      0.160000
     37 H10        -2.1150    0.8890   -3.4020 ha        1 1HF      0.162000
@<TRIPOS>BOND
     1    1    2 2   
     2    1   17 1   
     3    1   19 1   
     4    2   18 1   
     5    2   29 1   
     6    3   22 1   
     7    3   23 2   
     8    3   30 1   
     9    4   11 1   
    10    4   12 2   
    11    4   14 1   
    12    5    6 ar  
    13    5   11 ar  
    14    5   31 1   
    15    6    8 ar  
    16    6   25 1   
    17    7   12 1   
    18    7   13 2   
    19    8   10 ar  
    20    8   32 1   
    21    9   10 ar  
    22    9   11 ar  
    23    9   16 1   
    24   10   33 1   
    25   13   17 1   
    26   13   21 1   
    27   14   15 2   
    28   14   16 1   
    29   16   34 1   
    30   18   22 1   
    31   18   24 2   
    32   19   20 2   
    33   19   21 1   
    34   21   35 1   
    35   23   24 1   
    36   23   36 1   
    37   24   37 1   
    38   25   26 1   
    39   25   27 1   
    40   25   28 1   
@<TRIPOS>SUBSTRUCTURE
     1 1HF         1 TEMP              0 ****  ****    0 ROOT
