@<TRIPOS>MOLECULE
molecule
   46    48     1     0     0
SMALL
bcc


@<TRIPOS>ATOM
      1 C1           0.0000     0.0000     0.0000 c3         1 1HG       0.074100
      2 C2           1.5360     0.0000     0.0000 c3         1 1HG       0.108600
      3 O3          -0.4410    -1.1910     0.6600 os         1 1HG      -0.421400
      4 C4           0.1580    -1.5140     1.8200 c2         1 1HG       0.645500
      5 N5           1.2730    -1.0030     2.2180 n2         1 1HG      -0.602900
      6 C6           2.0120     0.0000     1.4560 c3         1 1HG       0.195500
      7 C7           1.7780     1.3610     2.0600 ca         1 1HG      -0.148300
      8 C8           0.9570     1.4940     3.1630 ca         1 1HG      -0.146000
      9 C9           0.7410     2.7490     3.7190 ca         1 1HG       0.063600
     10 C10          1.3510     3.8660     3.1640 ca         1 1HG      -0.080000
     11 C11          2.1700     3.7280     2.0600 ca         1 1HG      -0.124000
     12 C12          2.3890     2.4760     1.5110 ca         1 1HG       0.128900
     13 F13          3.1910     2.3430     0.4320 f          1 1HG      -0.130900
     14 N14         -0.4530    -2.4420     2.6280 nz         1 1HG      -0.727600
     15 C15          3.5060    -0.3270     1.5020 c3         1 1HG      -0.072100
     16 N16         -0.0900     2.8870     4.8360 ns         1 1HG      -0.468100
     17 C17          0.1950     3.8070     5.7780 c          1 1HG       0.582600
     18 C18         -0.6240     3.8850     7.0100 ca         1 1HG       0.372800
     19 O19          1.1240     4.5740     5.6170 o          1 1HG      -0.574100
     20 N20         -1.6340     3.0390     7.1790 nb         1 1HG      -0.702000
     21 C21         -2.3890     3.0670     8.2540 ca         1 1HG       0.449200
     22 C22         -2.1510     4.0010     9.2690 ca         1 1HG      -0.099300
     23 C23         -1.0940     4.9080     9.1240 ca         1 1HG      -0.060000
     24 C24         -0.3210     4.8390     7.9780 ca         1 1HG      -0.179300
     25 C25         -2.9770     4.0290    10.4370 cg         1 1HG       0.216800
     26 N26         -3.6410     4.0340    11.3590 n1         1 1HG      -0.309800
     27 C27         -0.5180     0.0160    -1.4400 c3         1 1HG       0.641900
     28 F28         -0.0290    -1.1010    -2.1250 f          1 1HG      -0.193633
     29 F29         -1.9170    -0.0180    -1.4320 f          1 1HG      -0.193633
     30 F30         -0.0830     1.1830    -2.0780 f          1 1HG      -0.193633
     31 F31          2.0080    -1.1450    -0.6510 f          1 1HG      -0.199300
     32 H1          -0.3640     0.8690     0.5350 h1         1 1HG       0.115700
     33 H2           1.8990     0.8880    -0.5020 h1         1 1HG       0.132700
     34 H3           0.5350     0.6140     3.6330 ha         1 1HG       0.125000
     35 H4           1.1440     4.8510     3.5650 ha         1 1HG       0.190000
     36 H5           2.6380     4.6010     1.6220 ha         1 1HG       0.174000
     37 H6          -1.0550    -1.9750     3.2760 hn         1 1HG       0.484800
     38 H7           0.2430    -2.9570     3.1300 hn         1 1HG       0.484800
     39 H8           4.0030     0.1340     0.6570 hc         1 1HG       0.074033
     40 H9           3.9310     0.0560     2.4230 hc         1 1HG       0.074033
     41 H10          3.6430    -1.4000     1.4610 hc         1 1HG       0.074033
     42 H11         -0.9050     2.3140     4.9270 hn         1 1HG       0.343500
     43 H12         -3.2040     2.3610     8.3560 h4         1 1HG       0.041100
     44 H13         -0.8830     5.6420     9.8930 ha         1 1HG       0.169000
     45 H14          0.5040     5.5250     7.8320 ha         1 1HG       0.178000
     46 H143        -0.9980    -3.0670     2.0660 hn         1 1HG       0.484800
@<TRIPOS>BOND
     1    30    27 1   
     2    28    27 1   
     3    13    12 1   
     4    31     2 1   
     5    27    29 1   
     6    27     1 1   
     7     2     1 1   
     8     2     6 1   
     9    15     6 1   
    10    12    11 ar  
    11    12     7 ar  
    12     1     3 1   
    13    11    10 ar  
    14     6     7 1   
    15     6     5 1   
    16     7     8 ar  
    17     3     4 1   
    18    10     9 ar  
    19     5     4 2   
    20     4    14 1   
    21     8     9 ar  
    22     9    16 1   
    23    19    17 2   
    24    16    17 1   
    25    17    18 1   
    26    18    24 ar  
    27    18    20 ar  
    28    24    23 ar  
    29    20    21 ar  
    30    23    22 ar  
    31    21    22 ar  
    32    22    25 1   
    33    25    26 3   
    34     1    32 1   
    35     2    33 1   
    36     8    34 1   
    37    10    35 1   
    38    11    36 1   
    39    14    37 1   
    40    14    38 1   
    41    15    39 1   
    42    15    40 1   
    43    15    41 1   
    44    16    42 1   
    45    21    43 1   
    46    23    44 1   
    47    24    45 1   
    48    46    14 1   
@<TRIPOS>SUBSTRUCTURE
     1 1HG         1 TEMP              0 ****  ****    0 ROOT
