@<TRIPOS>MOLECULE
1HG
   46    48     1     0     0
SMALL
bcc


@<TRIPOS>ATOM
      1 C1           0.3570    -0.2010    -0.4260 c3         1 1HG       0.060100
      2 C2           1.8590    -0.1120    -0.0870 c3         1 1HG       0.113600
      3 O3          -0.2950    -1.3120     0.2250 os         1 1HG      -0.430400
      4 C4           0.2860    -1.6630     1.4400 c2         1 1HG       0.661500
      5 N5           1.2680    -1.1450     2.0950 n2         1 1HG      -0.545900
      6 C6           2.0060    -0.0210     1.4860 c3         1 1HG       0.189500
      7 C7           1.5240     1.3380     1.9670 ca         1 1HG      -0.133300
      8 C8           0.5750     1.4500     2.9880 ca         1 1HG      -0.164000
      9 C9           0.1320     2.7050     3.4650 ca         1 1HG       0.081600
     10 C10          0.6730     3.8780     2.8890 ca         1 1HG      -0.104000
     11 C11          1.6290     3.7810     1.8940 ca         1 1HG      -0.119000
     12 C12          2.0720     2.5260     1.4330 ca         1 1HG       0.102900
     13 F13          3.0330     2.5030     0.4750 f          1 1HG      -0.133900
     14 N14         -0.4480    -2.8610     1.9170 nz         1 1HG      -0.788600
     15 C15          3.4940    -0.1750     1.8520 c3         1 1HG      -0.089100
     16 N16         -0.8050     2.7340     4.5070 ns         1 1HG      -0.462100
     17 C17         -1.6240     3.8100     4.8360 c          1 1HG       0.583600
     18 C18         -2.5810     3.6300     5.9890 ca         1 1HG       0.356800
     19 O19         -1.5800     4.8940     4.2310 o          1 1HG      -0.566100
     20 N20         -2.9480     2.3840     6.3890 nb         1 1HG      -0.674000
     21 C21         -3.8170     2.2870     7.4020 ca         1 1HG       0.431200
     22 C22         -4.3630     3.4130     8.0710 ca         1 1HG      -0.088300
     23 C23         -3.9790     4.6910     7.6490 ca         1 1HG      -0.058000
     24 C24         -3.0740     4.8050     6.5890 ca         1 1HG      -0.179300
     25 C25         -5.2770     3.2300     9.1380 cg         1 1HG       0.211800
     26 N26         -6.0270     3.0770    10.0140 n1         1 1HG      -0.306800
     27 C27          0.0800    -0.4430    -1.9590 c3         1 1HG       0.650900
     28 F28          0.3900    -1.7040    -2.3830 f          1 1HG      -0.206633
     29 F29         -1.2370    -0.2570    -2.2780 f          1 1HG      -0.206633
     30 F30          0.7860     0.4180    -2.7510 f          1 1HG      -0.206633
     31 F31          2.5470    -1.2060    -0.5760 f          1 1HG      -0.200300
     32 H1          -0.1710     0.7400    -0.1060 h1         1 1HG       0.133700
     33 H2           2.2790     0.8200    -0.5690 h1         1 1HG       0.145700
     34 H3           0.1700     0.5450     3.4660 ha         1 1HG       0.129000
     35 H4           0.3430     4.8780     3.2260 ha         1 1HG       0.196000
     36 H5           2.0670     4.6940     1.4540 ha         1 1HG       0.176000
     37 H6          -1.4520    -2.6390     1.9480 hn         1 1HG       0.489133
     38 H7          -0.1170    -3.1440     2.8490 hn         1 1HG       0.489133
     39 H8           4.0690     0.6390     1.3450 hc         1 1HG       0.078033
     40 H9           3.6330    -0.0880     2.9560 hc         1 1HG       0.078033
     41 H10          3.8900    -1.1600     1.5060 hc         1 1HG       0.078033
     42 H11         -0.9300     1.8790     5.0040 hn         1 1HG       0.338500
     43 H12         -4.0990     1.2610     7.7050 h4         1 1HG       0.042100
     44 H13         -4.3810     5.5920     8.1390 ha         1 1HG       0.172000
     45 H14         -2.7540     5.7910     6.2150 ha         1 1HG       0.184000
     46 H143        -0.2910    -3.6220     1.2410 hn         1 1HG       0.489133
@<TRIPOS>BOND
     1     1     2 1   
     2     1     3 1   
     3     1    27 1   
     4     1    32 1   
     5     2     6 1   
     6     2    31 1   
     7     2    33 1   
     8     3     4 1   
     9     4     5 2   
    10     4    14 1   
    11     5     6 1   
    12     6     7 1   
    13     6    15 1   
    14     7     8 ar  
    15     7    12 ar  
    16     8     9 ar  
    17     8    34 1   
    18     9    10 ar  
    19     9    16 1   
    20    10    11 ar  
    21    10    35 1   
    22    11    12 ar  
    23    11    36 1   
    24    12    13 1   
    25    14    37 1   
    26    14    38 1   
    27    14    46 1   
    28    15    39 1   
    29    15    40 1   
    30    15    41 1   
    31    16    17 1   
    32    16    42 1   
    33    17    18 1   
    34    17    19 2   
    35    18    20 ar  
    36    18    24 ar  
    37    20    21 ar  
    38    21    22 ar  
    39    21    43 1   
    40    22    23 ar  
    41    22    25 1   
    42    23    24 ar  
    43    23    44 1   
    44    24    45 1   
    45    25    26 3   
    46    27    28 1   
    47    27    29 1   
    48    27    30 1   
@<TRIPOS>SUBSTRUCTURE
     1 1HG         1 TEMP              0 ****  ****    0 ROOT
