@<TRIPOS>MOLECULE
1HG
   46    48     1     0     0
SMALL
bcc


@<TRIPOS>ATOM
      1 C1           0.0000     0.0000     0.0000 c3         1 1HG       0.103100
      2 C2           1.5360     0.0000     0.0000 c3         1 1HG       0.115600
      3 O3          -0.4410    -1.1910     0.6600 os         1 1HG      -0.376400
      4 C4           0.1580    -1.5140     1.8200 c2         1 1HG       0.374500
      5 N5           1.2730    -1.0030     2.2180 n2         1 1HG      -0.452900
      6 C6           2.0120     0.0000     1.4560 c3         1 1HG       0.172500
      7 C7           1.7780     1.3610     2.0600 ca         1 1HG      -0.154300
      8 C8           0.9570     1.4940     3.1630 ca         1 1HG      -0.129000
      9 C9           0.7410     2.7490     3.7190 ca         1 1HG      -0.073400
     10 C10          1.3510     3.8660     3.1640 ca         1 1HG      -0.051000
     11 C11          2.1700     3.7280     2.0600 ca         1 1HG      -0.081000
     12 C12          2.3890     2.4760     1.5110 ca         1 1HG       0.108900
     13 F13          3.1910     2.3430     0.4320 f          1 1HG      -0.116900
     14 N14         -0.4530    -2.4420     2.6280 nz         1 1HG       0.211400
     15 C15          3.5060    -0.3270     1.5020 c3         1 1HG       0.007900
     16 N16         -0.0900     2.8870     4.8360 ns         1 1HG      -0.028100
     17 C17          0.1950     3.8070     5.7780 c          1 1HG       0.484600
     18 C18         -0.6240     3.8850     7.0100 ca         1 1HG       0.308800
     19 O19          1.1240     4.5740     5.6170 o          1 1HG      -0.616100
     20 N20         -1.6340     3.0390     7.1790 nb         1 1HG      -0.588000
     21 C21         -2.3890     3.0670     8.2540 ca         1 1HG       0.421200
     22 C22         -2.1510     4.0010     9.2690 ca         1 1HG      -0.041300
     23 C23         -1.0940     4.9080     9.1240 ca         1 1HG      -0.044000
     24 C24         -0.3210     4.8390     7.9780 ca         1 1HG      -0.134300
     25 C25         -2.9770     4.0290    10.4370 cg         1 1HG       0.199800
     26 N26         -3.6410     4.0340    11.3590 n1         1 1HG      -0.320800
     27 C27         -0.5180     0.0160    -1.4400 c3         1 1HG       0.594900
     28 F28         -0.0290    -1.1010    -2.1250 f          1 1HG      -0.183300
     29 F29         -1.9170    -0.0180    -1.4320 f          1 1HG      -0.183300
     30 F30         -0.0830     1.1830    -2.0780 f          1 1HG      -0.183300
     31 F31          2.0080    -1.1450    -0.6510 f          1 1HG      -0.192300
     32 H1          -0.3640     0.8690     0.5350 h1         1 1HG       0.082700
     33 H2           1.8990     0.8880    -0.5020 h1         1 1HG       0.103700
     34 H3           0.5350     0.6140     3.6330 ha         1 1HG       0.098000
     35 H4           1.1440     4.8510     3.5650 ha         1 1HG       0.161000
     36 H5           2.6380     4.6010     1.6220 ha         1 1HG       0.140000
     37 H6          -1.0550    -1.9750     3.2760 hn         1 1HG       0.228133
     38 H7           0.2430    -2.9570     3.1300 hn         1 1HG       0.228133
     39 H8           4.0030     0.1340     0.6570 hc         1 1HG       0.039033
     40 H9           3.9310     0.0560     2.4230 hc         1 1HG       0.039033
     41 H10          3.6430    -1.4000     1.4610 hc         1 1HG       0.039033
     42 H11         -0.9050     2.3140     4.9270 hn         1 1HG       0.185500
     43 H12         -3.2040     2.3610     8.3560 h4         1 1HG      -0.005900
     44 H13         -0.8830     5.6420     9.8930 ha         1 1HG       0.133000
     45 H14          0.5040     5.5250     7.8320 ha         1 1HG       0.146000
     46 H143        -0.9980    -3.0670     2.0660 hn         1 1HG       0.228133
@<TRIPOS>BOND
     1     1     2 1   
     2     1     3 1   
     3     1    27 1   
     4     1    32 1   
     5     2     6 1   
     6     2    31 1   
     7     2    33 1   
     8     3     4 1   
     9     4     5 2   
    10     4    14 1   
    11     5     6 1   
    12     6     7 1   
    13     6    15 1   
    14     7     8 ar  
    15     7    12 ar  
    16     8     9 ar  
    17     8    34 1   
    18     9    10 ar  
    19     9    16 1   
    20    10    11 ar  
    21    10    35 1   
    22    11    12 ar  
    23    11    36 1   
    24    12    13 1   
    25    14    37 1   
    26    14    38 1   
    27    14    46 1   
    28    15    39 1   
    29    15    40 1   
    30    15    41 1   
    31    16    17 1   
    32    16    42 1   
    33    17    18 1   
    34    17    19 2   
    35    18    20 ar  
    36    18    24 ar  
    37    20    21 ar  
    38    21    22 ar  
    39    21    43 1   
    40    22    23 ar  
    41    22    25 1   
    42    23    24 ar  
    43    23    44 1   
    44    24    45 1   
    45    25    26 3   
    46    27    28 1   
    47    27    29 1   
    48    27    30 1   
@<TRIPOS>SUBSTRUCTURE
     1 1HG         1 TEMP              0 ****  ****    0 ROOT
