@<TRIPOS>MOLECULE
1HH
   46    48     1     0     0
SMALL
bcc


@<TRIPOS>ATOM
      1 C8          -0.1480     0.0880    -0.0120 ca         1 1HH      -0.106000
      2 C3           2.9930    -2.4550     4.5920 c3         1 1HH       0.055100
      3 C5           1.4780    -1.1420     5.7930 c2         1 1HH       0.637500
      4 C9           1.2360     0.1280    -0.0150 ca         1 1HH      -0.120000
      5 C11         -0.1080    -0.1010     2.4130 ca         1 1HH      -0.148000
      6 C14          1.2870    -0.0700     2.4220 ca         1 1HH      -0.121300
      7 C7          -0.8500    -0.0250     1.2090 ca         1 1HH       0.077600
      8 C2           3.1680    -1.2850     3.5900 c3         1 1HH       0.130600
      9 C21         -3.1230    -0.3060     0.2380 c          1 1HH       0.582600
     10 C22         -4.6030    -0.3090     0.5450 ca         1 1HH       0.358800
     11 C12          2.8110     1.2390     3.8770 c3         1 1HH      -0.094100
     12 C10          1.9640     0.0560     1.1870 ca         1 1HH       0.098900
     13 C1           2.0890    -0.1210     3.7190 c3         1 1HH       0.191500
     14 O4           2.5610    -2.0190     5.8850 os         1 1HH      -0.409400
     15 N6           1.2000    -0.2870     4.8750 n2         1 1HH      -0.531900
     16 F13          3.3180     0.1060     1.1210 f          1 1HH      -0.134900
     17 F18          4.4480    -0.7890     3.7450 f          1 1HH      -0.190300
     18 N20         -2.2490    -0.0390     1.2860 ns         1 1HH      -0.458100
     19 O23         -2.7370    -0.5190    -0.9230 o          1 1HH      -0.568100
     20 C24         -5.4740    -0.2070    -0.5570 ca         1 1HH      -0.180300
     21 C25         -6.8540    -0.2230    -0.3290 ca         1 1HH      -0.058000
     22 C26         -7.3160    -0.3440     0.9860 ca         1 1HH      -0.091300
     23 C27         -6.3630    -0.4440     2.0320 ca         1 1HH       0.430200
     24 N28         -5.0410    -0.4270     1.8260 nb         1 1HH      -0.673000
     25 C29         -8.7020    -0.3670     1.2840 cg         1 1HH       0.213800
     26 N30         -9.8390    -0.3870     1.5310 n1         1 1HH      -0.309800
     27 C31          2.0030    -3.5900     4.1210 c3         1 1HH       0.617900
     28 F15          1.7840    -3.6580     2.7780 f          1 1HH      -0.218300
     29 F16          2.4250    -4.8350     4.4940 f          1 1HH      -0.218300
     30 F17          0.7580    -3.4540     4.6970 f          1 1HH      -0.218300
     31 N19          0.6150    -1.3660     6.9770 nz         1 1HH      -0.788600
     32 H1          -0.6890     0.1450    -0.9750 ha         1 1HH       0.195000
     33 H2           3.9990    -2.9300     4.8060 h1         1 1HH       0.171700
     34 H3           1.7860     0.2230    -0.9660 ha         1 1HH       0.173000
     35 H4          -0.6670    -0.1720     3.3600 ha         1 1HH       0.135000
     36 H5           3.0900    -1.7270     2.5490 h1         1 1HH       0.129700
     37 H6           3.4250     1.2590     4.8080 hc         1 1HH       0.078700
     38 H7           2.0660     2.0700     3.8970 hc         1 1HH       0.078700
     39 H8           3.4920     1.3840     3.0010 hc         1 1HH       0.078700
     40 H9           0.1260    -2.2640     6.8400 hn         1 1HH       0.488800
     41 H10          1.2150    -1.4260     7.8110 hn         1 1HH       0.488800
     42 H11         -2.6330     0.0620     2.2000 hn         1 1HH       0.338500
     43 H12         -5.0650    -0.1260    -1.5770 ha         1 1HH       0.185000
     44 H13         -7.5600    -0.1450    -1.1710 ha         1 1HH       0.170000
     45 H14         -6.6890    -0.5440     3.0850 h4         1 1HH       0.042100
     46 H193        -0.0670    -0.6040     7.0840 hn         1 1HH       0.488800
@<TRIPOS>BOND
     1     1     4 ar  
     2     1     7 ar  
     3     1    32 1   
     4     2     8 1   
     5     2    14 1   
     6     2    27 1   
     7     2    33 1   
     8     3    14 1   
     9     3    15 2   
    10     3    31 1   
    11     4    12 ar  
    12     4    34 1   
    13     5     6 ar  
    14     5     7 ar  
    15     5    35 1   
    16     6    12 ar  
    17     6    13 1   
    18     7    18 1   
    19     8    13 1   
    20     8    17 1   
    21     8    36 1   
    22     9    10 1   
    23     9    18 1   
    24     9    19 2   
    25    10    20 ar  
    26    10    24 ar  
    27    11    13 1   
    28    11    37 1   
    29    11    38 1   
    30    11    39 1   
    31    12    16 1   
    32    13    15 1   
    33    18    42 1   
    34    20    21 ar  
    35    20    43 1   
    36    21    22 ar  
    37    21    44 1   
    38    22    23 ar  
    39    22    25 1   
    40    23    24 ar  
    41    23    45 1   
    42    25    26 3   
    43    27    28 1   
    44    27    29 1   
    45    27    30 1   
    46    31    40 1   
    47    31    41 1   
    48    31    46 1   
@<TRIPOS>SUBSTRUCTURE
     1 1HH         1 TEMP              0 ****  ****    0 ROOT
