@<TRIPOS>MOLECULE
1HH
   46    48     1     0     0
SMALL
bcc


@<TRIPOS>ATOM
      1 C8         -0.0170   -1.2020   -0.1140 ca        1 1HH     -0.101000
      2 C3          3.8120   -0.5540    5.3320 c3        1 1HH      0.054100
      3 C5          1.6330   -1.3750    5.7820 c2        1 1HH      0.651500
      4 C9          1.3180   -1.5100    0.0660 ca        1 1HH     -0.128000
      5 C11        -0.0830   -0.3170    2.1450 ca        1 1HH     -0.148000
      6 C14         1.2720   -0.6240    2.3390 ca        1 1HH     -0.118300
      7 C7         -0.7500   -0.5940    0.9330 ca        1 1HH      0.072600
      8 C2          3.3810   -0.6320    3.8460 c3        1 1HH      0.134600
      9 C21        -2.9910   -0.7190   -0.1380 c         1 1HH      0.582600
     10 C22        -4.4140   -0.2160   -0.0800 ca        1 1HH      0.357800
     11 C12         1.7480    1.2890    3.8410 c3        1 1HH     -0.102100
     12 C10         1.9770   -1.2330    1.2830 ca        1 1HH      0.117900
     13 C1          1.8610   -0.2430    3.6910 c3        1 1HH      0.188500
     14 O4          2.9620   -1.3300    6.1940 os        1 1HH     -0.431400
     15 N6          1.0590   -0.9240    4.7230 n2        1 1HH     -0.545900
     16 F13         3.2880   -1.5630    1.3730 f         1 1HH     -0.133900
     17 F18         4.1830    0.1970    3.0940 f         1 1HH     -0.171300
     18 N20        -2.0980   -0.2300    0.8090 n         1 1HH     -0.458100
     19 O23        -2.6580   -1.5240   -1.0240 o         1 1HH     -0.571100
     20 C24        -5.1740   -0.3350   -1.2590 ca        1 1HH     -0.181300
     21 C25        -6.5030    0.0990   -1.2490 ca        1 1HH     -0.059000
     22 C26        -7.0280    0.6320   -0.0670 ca        1 1HH     -0.091300
     23 C27        -6.1870    0.7090    1.0730 ca        1 1HH      0.431200
     24 N28        -4.9120    0.3000    1.0740 nb        1 1HH     -0.670000
     25 C29        -8.3680    1.0880    0.0080 cg        1 1HH      0.213800
     26 N30        -9.4680    1.4620    0.0710 n1        1 1HH     -0.310800
     27 C31         5.2390   -1.1940    5.5620 c3        1 1HH      0.648900
     28 H1         -0.5000   -1.4390   -1.0800 ha        1 1HH      0.194000
     29 H2          3.8330    0.5040    5.7120 h1        1 1HH      0.126700
     30 H3          1.8940   -1.9790   -0.7500 ha        1 1HH      0.173000
     31 H4         -0.6430    0.1610    2.9660 ha        1 1HH      0.140000
     32 H5          3.5320   -1.7020    3.5060 h1        1 1HH      0.116700
     33 H6          0.6840    1.6240    3.8030 hc        1 1HH      0.072367
     34 H7          2.2050    1.6300    4.7990 hc        1 1HH      0.072367
     35 H8          2.3000    1.7600    2.9880 hc        1 1HH      0.072367
     36 H9         -0.1070   -2.1630    6.6120 hn        1 1HH      0.489133
     37 H10         1.0290   -1.6150    7.7340 hn        1 1HH      0.489133
     38 H11        -2.4560    0.3580    1.5300 hn        1 1HH      0.340500
     39 H12        -4.7230   -0.7740   -2.1640 ha        1 1HH      0.183000
     40 H13        -7.1230    0.0190   -2.1570 ha        1 1HH      0.170000
     41 H14        -6.5650    1.1220    2.0270 h4        1 1HH      0.044100
     42 F15         5.3530   -2.4610    5.0620 f         1 1HH     -0.205300
     43 F16         6.2350   -0.4570    4.9900 f         1 1HH     -0.205300
     44 F17         5.5490   -1.2890    6.8910 f         1 1HH     -0.205300
     45 H193        1.2930   -3.0540    6.9130 hn        1 1HH      0.489133
     46 N19         0.8950   -2.1080    6.8410 n4        1 1HH     -0.787600
@<TRIPOS>BOND
     1    1    4 ar
     2    1    7 ar
     3    1   28 1
     4    2    8 1
     5    2   14 1
     6    2   27 1
     7    2   29 1
     8    3   14 1
     9    3   15 2
    10    3   46 1
    11    4   12 ar
    12    4   30 1
    13    5    6 ar
    14    5    7 ar
    15    5   31 1
    16    6   12 ar
    17    6   13 1
    18    7   18 1
    19    8   13 1
    20    8   17 1
    21    8   32 1
    22    9   10 1
    23    9   18 1
    24    9   19 2
    25   10   20 ar
    26   10   24 ar
    27   11   13 1
    28   11   33 1
    29   11   34 1
    30   11   35 1
    31   12   16 1
    32   13   15 1
    33   18   38 1
    34   20   21 ar
    35   20   39 1
    36   21   22 ar
    37   21   40 1
    38   22   23 ar
    39   22   25 1
    40   23   24 ar
    41   23   41 1
    42   25   26 3
    43   27   42 1
    44   27   43 1
    45   27   44 1
    46   36   46 1
    47   37   46 1
    48   45   46 1
@<TRIPOS>SUBSTRUCTURE
     1 1HH         1 TEMP              0 ****  ****    0 ROOT
