@<TRIPOS>MOLECULE
molecule
   46    48     1     0     0
SMALL
bcc


@<TRIPOS>ATOM
      1 C1           0.0000     0.0000     0.0000 c3         1 1HJ       0.103100
      2 C2           1.5350     0.0000     0.0000 c3         1 1HJ      -0.153400
      3 O3          -0.4410     1.1910     0.6600 os         1 1HJ      -0.432400
      4 C4           0.1590     1.5150     1.8200 c2         1 1HJ       0.641500
      5 N5           1.2740     1.0040     2.2170 n2         1 1HJ      -0.609900
      6 C6           2.0130     0.0000     1.4560 c3         1 1HJ       0.218500
      7 C7           3.4850     0.3200     1.5000 ca         1 1HJ      -0.125300
      8 C8           3.9290     1.4310     2.1900 ca         1 1HJ      -0.127000
      9 C9           5.2850     1.7260     2.2310 ca         1 1HJ       0.055600
     10 C10          6.1930     0.9020     1.5790 ca         1 1HJ      -0.081000
     11 C11          5.7440    -0.2080     0.8900 ca         1 1HJ      -0.131000
     12 C12          4.3910    -0.5040     0.8550 ca         1 1HJ       0.127900
     13 F13          3.9560    -1.5900     0.1810 f          1 1HJ      -0.137900
     14 N14         -0.4510     2.4440     2.6280 nz         1 1HJ      -0.728600
     15 C15          1.7730    -1.3810     2.0700 c3         1 1HJ      -0.090100
     16 N16          5.7370     2.8510     2.9290 ns         1 1HJ      -0.466100
     17 C17          6.9170     2.8130     3.5780 c          1 1HJ       0.580600
     18 C18          7.3480     3.9670     4.4010 ca         1 1HJ       0.375800
     19 O19          7.6280     1.8310     3.4890 o          1 1HJ      -0.578100
     20 N20          6.5620     5.0330     4.4970 nb         1 1HJ      -0.699000
     21 C21          6.9000     6.0810     5.2150 ca         1 1HJ       0.449200
     22 C22          8.1140     6.1090     5.9090 ca         1 1HJ      -0.102300
     23 C23          8.9680     5.0020     5.8310 ca         1 1HJ      -0.061000
     24 C24          8.5700     3.9180     5.0680 ca         1 1HJ      -0.182300
     25 C25          8.4780     7.2530     6.6890 cg         1 1HJ       0.218800
     26 N26          8.7800     8.1650     7.2940 n1         1 1HJ      -0.313800
     27 C27         -0.5190    -0.0170    -1.4380 c3         1 1HJ       0.639900
     28 F28         -1.9180     0.0170    -1.4300 f          1 1HJ      -0.198300
     29 F29         -0.0290     1.1000    -2.1240 f          1 1HJ      -0.198300
     30 F30         -0.0850    -1.1840    -2.0770 f          1 1HJ      -0.198300
     31 H1          -0.3640    -0.8690     0.5360 h1         1 1HJ       0.105700
     32 H2           1.9000    -0.8880    -0.5030 hc         1 1HJ       0.111200
     33 H3           1.9000     0.8880    -0.5030 hc         1 1HJ       0.111200
     34 H4           3.2240     2.0460     2.7370 ha         1 1HJ       0.135000
     35 H5           7.2430     1.1660     1.5540 ha         1 1HJ       0.185000
     36 H6           6.4510    -0.8470     0.3750 ha         1 1HJ       0.169000
     37 H7          -1.4440     2.3640     2.5370 hn         1 1HJ       0.483467
     38 H8          -0.1640     3.3630     2.3540 hn         1 1HJ       0.483467
     39 H9           0.7890    -1.4110     2.5200 hc         1 1HJ       0.066700
     40 H10          2.5230    -1.5750     2.8270 hc         1 1HJ       0.066700
     41 H11          1.8390    -2.1360     1.2960 hc         1 1HJ       0.066700
     42 H12          5.1970     3.6940     2.9220 hn         1 1HJ       0.345500
     43 H13          6.2320     6.9320     5.2680 h4         1 1HJ       0.041100
     44 H14          9.9130     4.9930     6.3590 ha         1 1HJ       0.167000
     45 H15          9.2050     3.0440     4.9850 ha         1 1HJ       0.178000
     46 H143        -0.1930     2.2780     3.5800 hn         1 1HJ       0.483467
@<TRIPOS>BOND
     1    28    27 1   
     2    13    12 1   
     3    27    29 1   
     4    27    30 1   
     5    27     1 1   
     6     2     1 1   
     7     2     6 1   
     8     1     3 1   
     9    15     6 1   
    10    12    11 ar  
    11    12     7 ar  
    12    11    10 ar  
    13     6     7 1   
    14     6     5 1   
    15     7     8 ar  
    16     3     4 1   
    17    10     9 ar  
    18     5     4 2   
    19     4    14 1   
    20     8     9 ar  
    21     9    16 1   
    22    19    17 2   
    23    16    17 1   
    24    17    18 1   
    25    18    24 ar  
    26    18    20 ar  
    27    24    23 ar  
    28    20    21 ar  
    29    23    22 ar  
    30    21    22 ar  
    31    22    25 1   
    32    25    26 3   
    33     1    31 1   
    34     2    32 1   
    35     2    33 1   
    36     8    34 1   
    37    10    35 1   
    38    11    36 1   
    39    14    37 1   
    40    14    38 1   
    41    15    39 1   
    42    15    40 1   
    43    15    41 1   
    44    16    42 1   
    45    21    43 1   
    46    23    44 1   
    47    24    45 1   
    48    46    14 1   
@<TRIPOS>SUBSTRUCTURE
     1 1HJ         1 TEMP              0 ****  ****    0 ROOT
