@<TRIPOS>MOLECULE
1HJ
   46    48     1     0     0
SMALL
bcc


@<TRIPOS>ATOM
      1 C1           0.0790    -0.9750     0.0880 c3         1 1HJ       0.106100
      2 C2           1.3950    -0.2320    -0.0040 c3         1 1HJ      -0.163400
      3 O3          -0.9370    -0.2710     0.8380 os         1 1HJ      -0.441400
      4 C4          -0.4250     0.5880     1.8030 c2         1 1HJ       0.659500
      5 N5           0.7840     0.8910     2.1250 n2         1 1HJ      -0.554900
      6 C6           1.8950     0.2760     1.3720 c3         1 1HJ       0.220500
      7 C7           3.0180     1.2800     1.1430 ca         1 1HJ      -0.108300
      8 C8           3.0050     2.5440     1.7340 ca         1 1HJ      -0.149000
      9 C9           4.0480     3.4780     1.5230 ca         1 1HJ       0.074600
     10 C10          5.1280     3.1110     0.6900 ca         1 1HJ      -0.109000
     11 C11          5.1590     1.8540     0.1110 ca         1 1HJ      -0.121000
     12 C12          4.1220     0.9290     0.3320 ca         1 1HJ       0.099900
     13 F13          4.2240    -0.2950    -0.2460 f          1 1HJ      -0.140900
     14 N14         -1.6020     1.1740     2.4950 nz         1 1HJ      -0.789600
     15 C15          2.4610    -0.9060     2.1870 c3         1 1HJ      -0.104100
     16 N16          3.9740     4.7190     2.1730 ns         1 1HJ      -0.458100
     17 C17          4.6890     5.8620     1.8370 c          1 1HJ       0.581600
     18 C18          4.4320     7.1110     2.6480 ca         1 1HJ       0.358800
     19 O19          5.5320     5.8850     0.9240 o          1 1HJ      -0.569100
     20 N20          3.2950     7.2350     3.3790 nb         1 1HJ      -0.673000
     21 C21          3.1130     8.3730     4.0590 ca         1 1HJ       0.430200
     22 C22          4.0460     9.4420     4.0520 ca         1 1HJ      -0.092300
     23 C23          5.2140     9.3030     3.2950 ca         1 1HJ      -0.058000
     24 C24          5.4130     8.1190     2.5780 ca         1 1HJ      -0.181300
     25 C25          3.7840    10.6170     4.8000 cg         1 1HJ       0.213800
     26 N26          3.5680    11.5810     5.4150 n1         1 1HJ      -0.310800
     27 C27         -0.5700    -1.1610    -1.3380 c3         1 1HJ       0.639900
     28 F28          0.2420    -1.8650    -2.1830 f          1 1HJ      -0.210633
     29 F29         -1.7520    -1.8460    -1.2890 f          1 1HJ      -0.210633
     30 F30         -0.8500     0.0190    -1.9700 f          1 1HJ      -0.210633
     31 H1           0.1870    -1.9880     0.5670 h1         1 1HJ       0.118700
     32 H2           2.1570    -0.9320    -0.4450 hc         1 1HJ       0.119700
     33 H3           1.2930     0.6400    -0.7060 hc         1 1HJ       0.119700
     34 H4           2.1760     2.8340     2.3990 ha         1 1HJ       0.138000
     35 H5           5.9570     3.8150     0.4920 ha         1 1HJ       0.194000
     36 H6           6.0060     1.5600    -0.5310 ha         1 1HJ       0.172000
     37 H7          -2.1030     1.7720     1.8250 hn         1 1HJ       0.487133
     38 H8          -2.2200     0.4070     2.7920 hn         1 1HJ       0.487133
     39 H9           3.3290    -1.3390     1.6310 hc         1 1HJ       0.069700
     40 H10          2.8190    -0.5600     3.1870 hc         1 1HJ       0.069700
     41 H11          1.6890    -1.6990     2.3240 hc         1 1HJ       0.069700
     42 H12          3.2730     4.7960     2.8780 hn         1 1HJ       0.338500
     43 H13          2.1760     8.4470     4.6430 h4         1 1HJ       0.042100
     44 H14          5.9640    10.1100     3.2590 ha         1 1HJ       0.170000
     45 H15          6.3120     7.9710     1.9570 ha         1 1HJ       0.184000
     46 H143        -1.3070     1.7270     3.3100 hn         1 1HJ       0.487133
@<TRIPOS>BOND
     1     1     2 1   
     2     1     3 1   
     3     1    27 1   
     4     1    31 1   
     5     2     6 1   
     6     2    32 1   
     7     2    33 1   
     8     3     4 1   
     9     4     5 2   
    10     4    14 1   
    11     5     6 1   
    12     6     7 1   
    13     6    15 1   
    14     7     8 ar  
    15     7    12 ar  
    16     8     9 ar  
    17     8    34 1   
    18     9    10 ar  
    19     9    16 1   
    20    10    11 ar  
    21    10    35 1   
    22    11    12 ar  
    23    11    36 1   
    24    12    13 1   
    25    14    37 1   
    26    14    38 1   
    27    14    46 1   
    28    15    39 1   
    29    15    40 1   
    30    15    41 1   
    31    16    17 1   
    32    16    42 1   
    33    17    18 1   
    34    17    19 2   
    35    18    20 ar  
    36    18    24 ar  
    37    20    21 ar  
    38    21    22 ar  
    39    21    43 1   
    40    22    23 ar  
    41    22    25 1   
    42    23    24 ar  
    43    23    44 1   
    44    24    45 1   
    45    25    26 3   
    46    27    28 1   
    47    27    29 1   
    48    27    30 1   
@<TRIPOS>SUBSTRUCTURE
     1 1HJ         1 TEMP              0 ****  ****    0 ROOT
