@<TRIPOS>MOLECULE
1HK
   41    44     1     0     0
SMALL
bcc


@<TRIPOS>ATOM
      1 O1          -0.0000     0.3230    -0.1250 oh         1 1HK      -0.474100
      2 C1           1.3190     0.0180     0.1110 ca         1 1HK       0.103100
      3 C18          1.8380     0.3470     1.3900 ca         1 1HK       0.104100
      4 O2           0.9430     0.9440     2.2550 os         1 1HK      -0.302900
      5 C19          1.4430     1.2620     3.5480 c3         1 1HK       0.110700
      6 C17          3.1700     0.0620     1.6890 ca         1 1HK      -0.172000
      7 C4           3.9930    -0.5460     0.7310 ca         1 1HK      -0.085300
      8 C3           3.4760    -0.8690    -0.5240 ca         1 1HK      -0.121000
      9 C2           2.1460    -0.5890    -0.8370 ca         1 1HK      -0.186000
     10 C5           5.4120    -0.8570     1.0560 c3         1 1HK      -0.032100
     11 C6           6.3550     0.1550     0.4240 c3         1 1HK      -0.013100
     12 C7           7.7740    -0.1990     0.6210 cc         1 1HK      -0.065600
     13 C9           8.7990    -0.3900    -0.2960 cd         1 1HK      -0.264600
     14 C10          9.1650    -0.4040    -1.7320 c3         1 1HK       0.053200
     15 C11         10.6400    -0.7420    -1.7000 ca         1 1HK      -0.082300
     16 C16         11.1150    -0.9130    -0.3580 ca         1 1HK      -0.109500
     17 C8           9.9890    -0.7000     0.5300 cd         1 1HK       0.338800
     18 N2           9.6750    -0.6890     1.8420 nc         1 1HK      -0.465800
     19 N1           8.3730    -0.3860     1.8910 na         1 1HK      -0.041600
     20 C15         12.4390    -1.2260    -0.1100 ca         1 1HK      -0.097000
     21 C14         13.3080    -1.3720    -1.2020 ca         1 1HK      -0.134000
     22 C13         12.8510    -1.2060    -2.5050 ca         1 1HK      -0.126000
     23 C12         11.5080    -0.8890    -2.7650 ca         1 1HK      -0.122000
     24 H2          -0.2090     0.0380    -1.0270 ho         1 1HK       0.415000
     25 H192         0.5580     1.7160     4.0610 h1         1 1HK       0.044367
     26 H191         1.7780     0.3400     4.0820 h1         1 1HK       0.044367
     27 H193         2.2790     2.0000     3.4780 h1         1 1HK       0.044367
     28 H13          3.5830     0.3110     2.6770 ha         1 1HK       0.139000
     29 H4           4.1200    -1.3490    -1.2750 ha         1 1HK       0.136000
     30 H3           1.7450    -0.8470    -1.8280 ha         1 1HK       0.137000
     31 H5           5.5580    -0.8650     2.1700 hc         1 1HK       0.051200
     32 H14          5.6650    -1.8850     0.6810 hc         1 1HK       0.051200
     33 H6           6.1540     0.2120    -0.6800 hc         1 1HK       0.065200
     34 H15          6.1540     1.1750     0.8540 hc         1 1HK       0.065200
     35 H7           8.5910    -1.1790    -2.3030 hc         1 1HK       0.067200
     36 H8           8.9950     0.5910    -2.2160 hc         1 1HK       0.067200
     37 H1           7.9030    -0.3520     2.7630 hn         1 1HK       0.316700
     38 H12         12.8060    -1.3570     0.9170 ha         1 1HK       0.145000
     39 H11         14.3640    -1.6200    -1.0200 ha         1 1HK       0.132000
     40 H10         13.5470    -1.3250    -3.3490 ha         1 1HK       0.131000
     41 H9          11.1610    -0.7610    -3.7990 ha         1 1HK       0.133000
@<TRIPOS>BOND
     1     1     2 1   
     2     1    24 1   
     3     2     3 ar  
     4     2     9 ar  
     5     3     4 1   
     6     3     6 ar  
     7     4     5 1   
     8     5    25 1   
     9     5    26 1   
    10     5    27 1   
    11     6     7 ar  
    12     6    28 1   
    13     7     8 ar  
    14     7    10 1   
    15     8     9 ar  
    16     8    29 1   
    17     9    30 1   
    18    10    11 1   
    19    10    31 1   
    20    10    32 1   
    21    11    12 1   
    22    11    33 1   
    23    11    34 1   
    24    12    13 2   
    25    12    19 1   
    26    13    14 1   
    27    13    17 1   
    28    14    15 1   
    29    14    35 1   
    30    14    36 1   
    31    15    16 ar  
    32    15    23 ar  
    33    16    17 1   
    34    16    20 ar  
    35    17    18 2   
    36    18    19 1   
    37    19    37 1   
    38    20    21 ar  
    39    20    38 1   
    40    21    22 ar  
    41    21    39 1   
    42    22    23 ar  
    43    22    40 1   
    44    23    41 1   
@<TRIPOS>SUBSTRUCTURE
     1 1HK         1 TEMP              0 ****  ****    0 ROOT
