@<TRIPOS>MOLECULE
1HK
   41    44     1     0     0
SMALL
bcc


@<TRIPOS>ATOM
      1 O1         -0.1380   -0.3690   -0.1160 oh        1 1HK     -0.494100
      2 C1          1.2320   -0.2630   -0.1170 ca        1 1HK      0.113100
      3 C18         1.9810    0.0570    1.0400 ca        1 1HK      0.044100
      4 O2          1.2250    0.2470    2.1860 os        1 1HK     -0.347900
      5 C19         1.9270    0.7460    3.3180 c3        1 1HK      0.121700
      6 C17         3.3700    0.1450    0.9750 ca        1 1HK     -0.157000
      7 C4          4.0260   -0.0850   -0.2420 ca        1 1HK     -0.090300
      8 C3          3.2830   -0.4010   -1.3830 ca        1 1HK     -0.121000
      9 C2          1.8930   -0.4920   -1.3290 ca        1 1HK     -0.135000
     10 C5          5.5090    0.0180   -0.3100 c3        1 1HK     -0.032100
     11 C6          6.1730   -1.2370    0.2350 c3        1 1HK     -0.013100
     12 C7          7.6410   -1.1110    0.3100 cc        1 1HK     -0.065600
     13 C9          8.5150   -1.2780    1.3760 cd        1 1HK     -0.265600
     14 C10         8.6340   -1.5980    2.8180 c3        1 1HK      0.053200
     15 C11        10.1270   -1.5260    3.0570 ca        1 1HK     -0.082300
     16 C16        10.8390   -1.1940    1.8580 ca        1 1HK     -0.108500
     17 C8          9.8590   -1.0350    0.8010 cd        1 1HK      0.337800
     18 N2          9.7710   -0.7450   -0.5130 nc        1 1HK     -0.465800
     19 N1          8.4650   -0.7960   -0.7990 na        1 1HK     -0.040600
     20 C15        12.2180   -1.0790    1.8620 ca        1 1HK     -0.097000
     21 C14        12.9030   -1.2960    3.0670 ca        1 1HK     -0.134000
     22 C13        12.2160   -1.6190    4.2310 ca        1 1HK     -0.126000
     23 C12        10.8170   -1.7370    4.2350 ca        1 1HK     -0.122000
     24 H2         -0.4550   -0.1620    0.7770 ho        1 1HK      0.437000
     25 H192        2.6670   -0.0090    3.6810 h1        1 1HK      0.046367
     26 H191        2.4360    1.7100    3.0770 h1        1 1HK      0.046367
     27 H193        1.1190    0.9020    4.0770 h1        1 1HK      0.046367
     28 H13         3.9600    0.3940    1.8690 ha        1 1HK      0.140000
     29 H4          3.7960   -0.5780   -2.3400 ha        1 1HK      0.135000
     30 H3          1.3040   -0.7390   -2.2240 ha        1 1HK      0.154000
     31 H5          5.8300    0.1840   -1.3730 hc        1 1HK      0.051700
     32 H14         5.8520    0.9080    0.2840 hc        1 1HK      0.051700
     33 H6          5.7830   -1.4470    1.2680 hc        1 1HK      0.065200
     34 H15         5.9000   -2.1170   -0.4100 hc        1 1HK      0.065200
     35 H7          8.2420   -2.6210    3.0520 hc        1 1HK      0.066200
     36 H8          8.0920   -0.8550    3.4580 hc        1 1HK      0.066200
     37 H1          8.1480   -0.5920   -1.7160 hn        1 1HK      0.317700
     38 H12        12.7660   -0.8250    0.9440 ha        1 1HK      0.145000
     39 H11        14.0000   -1.2080    3.0840 ha        1 1HK      0.132000
     40 H10        12.7710   -1.7860    5.1670 ha        1 1HK      0.131000
     41 H9         10.2860   -1.9930    5.1620 ha        1 1HK      0.133000
@<TRIPOS>BOND
     1    1    2 1   
     2    1   24 1   
     3    2    3 ar  
     4    2    9 ar  
     5    3    4 1   
     6    3    6 ar  
     7    4    5 1   
     8    5   25 1   
     9    5   26 1   
    10    5   27 1   
    11    6    7 ar  
    12    6   28 1   
    13    7    8 ar  
    14    7   10 1   
    15    8    9 ar  
    16    8   29 1   
    17    9   30 1   
    18   10   11 1   
    19   10   31 1   
    20   10   32 1   
    21   11   12 1   
    22   11   33 1   
    23   11   34 1   
    24   12   13 2   
    25   12   19 1   
    26   13   14 1   
    27   13   17 1   
    28   14   15 1   
    29   14   35 1   
    30   14   36 1   
    31   15   16 ar  
    32   15   23 ar  
    33   16   17 1   
    34   16   20 ar  
    35   17   18 2   
    36   18   19 1   
    37   19   37 1   
    38   20   21 ar  
    39   20   38 1   
    40   21   22 ar  
    41   21   39 1   
    42   22   23 ar  
    43   22   40 1   
    44   23   41 1   
@<TRIPOS>SUBSTRUCTURE
     1 1HK         1 TEMP              0 ****  ****    0 ROOT
