@<TRIPOS>MOLECULE
molecule
   41    44     1     0     0
SMALL
bcc


@<TRIPOS>ATOM
      1 O1           0.0000     0.0000     0.0000 oh         1 1HK      -0.499100
      2 C1           1.3610     0.0000     0.0000 ca         1 1HK       0.084100
      3 C18          2.0580     0.0000     1.2040 ca         1 1HK       0.129100
      4 O2           1.3810    -0.0000     2.3840 os         1 1HK      -0.310900
      5 C19          2.1630    -0.0000     3.5790 c3         1 1HK       0.125700
      6 C17          3.4430    -0.0000     1.1980 ca         1 1HK      -0.202000
      7 C4           4.1290    -0.0010    -0.0020 ca         1 1HK      -0.064300
      8 C3           3.4370     0.0000    -1.1980 ca         1 1HK      -0.145000
      9 C2           2.0540    -0.0060    -1.1990 ca         1 1HK      -0.141000
     10 C5           5.6370    -0.0010    -0.0070 c3         1 1HK      -0.032100
     11 C6           6.1470    -1.4430    -0.0080 c3         1 1HK      -0.011100
     12 C7           7.6540    -1.4430    -0.0120 cc         1 1HK      -0.049600
     13 C9           8.4510    -1.3480     1.0710 cd         1 1HK      -0.319600
     14 C10          8.4720    -1.2160     2.5740 c3         1 1HK       0.056200
     15 C11          9.9270    -1.1810     2.9730 ca         1 1HK      -0.078300
     16 C16         10.6880    -1.2830     1.8120 ca         1 1HK      -0.110500
     17 C8           9.7890    -1.3860     0.6360 cd         1 1HK       0.383800
     18 N2           9.7800    -1.5020    -0.6780 nc         1 1HK      -0.484800
     19 N1           8.4450    -1.5440    -1.1020 na         1 1HK      -0.038600
     20 C15         12.0820    -1.2760     1.9050 ca         1 1HK      -0.095000
     21 C14         12.6900    -1.1680     3.1380 ca         1 1HK      -0.134000
     22 C13         11.9250    -1.0680     4.2850 ca         1 1HK      -0.118000
     23 C12         10.5440    -1.0730     4.2020 ca         1 1HK      -0.117000
     24 H2          -0.3140    -0.7770    -0.4320 ho         1 1HK       0.415000
     25 H192         1.5060     0.0140     4.4400 h1         1 1HK       0.041367
     26 H191         2.7980     0.8780     3.5950 h1         1 1HK       0.041367
     27 H193         2.7790    -0.8910     3.6080 h1         1 1HK       0.041367
     28 H13          3.9890    -0.0010     2.1340 ha         1 1HK       0.141000
     29 H4           3.9790    -0.0020    -2.1370 ha         1 1HK       0.132000
     30 H3           1.5130    -0.0060    -2.1380 ha         1 1HK       0.142000
     31 H5           6.0000     0.5100     0.8770 hc         1 1HK       0.056700
     32 H14          5.9950     0.5100    -0.8920 hc         1 1HK       0.056700
     33 H6           5.7880    -1.9530     0.8780 hc         1 1HK       0.059200
     34 H15          5.7830    -1.9540    -0.8910 hc         1 1HK       0.059200
     35 H7           7.9830    -0.2970     2.8720 hc         1 1HK       0.059700
     36 H8           7.9830    -2.0690     3.0280 hc         1 1HK       0.059700
     37 H1           8.1330    -1.6300    -2.0490 hn         1 1HK       0.332700
     38 H12         12.6850    -1.3540     1.0080 ha         1 1HK       0.140000
     39 H11         13.7710    -1.1630     3.2080 ha         1 1HK       0.133000
     40 H10         12.4080    -0.9830     5.2510 ha         1 1HK       0.132000
     41 H9           9.9470    -0.9950     5.1020 ha         1 1HK       0.130000
@<TRIPOS>BOND
     1    18    19 1   
     2    18    17 2   
     3    20    21 ar  
     4    20    16 ar  
     5    19    12 1   
     6    17    16 1   
     7    17    13 1   
     8    21    22 ar  
     9    16    15 ar  
    10    12    13 2   
    11    12    11 1   
    12    13    14 1   
    13    22    23 ar  
    14    15    14 1   
    15    15    23 ar  
    16    11    10 1   
    17    10     7 1   
    18     7     6 ar  
    19     7     8 ar  
    20     6     3 ar  
    21     8     9 ar  
    22     3     2 ar  
    23     3     4 1   
    24     9     2 ar  
    25     5     4 1   
    26     2     1 1   
    27     1    24 1   
    28     5    25 1   
    29     5    26 1   
    30     5    27 1   
    31     6    28 1   
    32     8    29 1   
    33     9    30 1   
    34    10    31 1   
    35    10    32 1   
    36    11    33 1   
    37    11    34 1   
    38    14    35 1   
    39    14    36 1   
    40    19    37 1   
    41    20    38 1   
    42    21    39 1   
    43    22    40 1   
    44    23    41 1   
@<TRIPOS>SUBSTRUCTURE
     1 1HK         1 TEMP              0 ****  ****    0 ROOT
