@<TRIPOS>MOLECULE
1HL
   46    48     1     0     0
SMALL
bcc


@<TRIPOS>ATOM
      1 C1           0.3710    -0.2820    -0.4020 c3         1 1HL       0.108100
      2 C2           1.8330    -0.1540    -0.0320 c3         1 1HL      -0.161400
      3 O3          -0.3180    -1.3100     0.3470 os         1 1HL      -0.441400
      4 C4           0.2420    -1.5650     1.5930 c2         1 1HL       0.659500
      5 N5           1.2470    -1.0370     2.2030 n2         1 1HL      -0.552900
      6 C6           2.0390    -0.0070     1.4970 c3         1 1HL       0.218500
      7 C7           1.6930     1.4030     1.9580 ca         1 1HL      -0.122300
      8 C8           0.7980     1.6270     3.0080 ca         1 1HL      -0.164000
      9 C9           0.4740     2.9300     3.4520 ca         1 1HL       0.077600
     10 C10          1.0820     4.0350     2.8110 ca         1 1HL      -0.107000
     11 C11          1.9870     3.8250     1.7860 ca         1 1HL      -0.121000
     12 C12          2.3110     2.5230     1.3580 ca         1 1HL       0.104900
     13 F13          3.2280     2.3900     0.3670 f          1 1HL      -0.134900
     14 N14         -0.5690    -2.6550     2.1930 nz         1 1HL      -0.790600
     15 C15          3.5280    -0.2690     1.8060 c3         1 1HL      -0.089100
     16 N16         -0.4140     3.0720     4.5270 ns         1 1HL      -0.461100
     17 C17         -1.1370     4.2170     4.8390 c          1 1HL       0.582600
     18 C18         -2.0610     4.1550     6.0320 ca         1 1HL       0.357800
     19 O19         -1.0360     5.2720     4.1900 o          1 1HL      -0.567100
     20 N20         -2.5100     2.9580     6.4910 nb         1 1HL      -0.674000
     21 C21         -3.3450     2.9670     7.5380 ca         1 1HL       0.430200
     22 C22         -3.7730     4.1570     8.1830 ca         1 1HL      -0.090300
     23 C23         -3.3040     5.3830     7.7000 ca         1 1HL      -0.058000
     24 C24         -2.4340     5.3870     6.6050 ca         1 1HL      -0.180300
     25 C25         -4.6570     4.0850     9.2880 cg         1 1HL       0.212800
     26 N26         -5.3830     4.0250    10.1950 n1         1 1HL      -0.307800
     27 C27          0.1980    -0.7340    -1.9030 c3         1 1HL       0.637900
     28 F28         -1.1140    -0.8410    -2.2730 f          1 1HL      -0.211633
     29 F29          0.7680     0.1500    -2.7760 f          1 1HL      -0.211633
     30 F30          0.7600    -1.9520    -2.1740 f          1 1HL      -0.211633
     31 H1          -0.2030     0.6730    -0.2440 h1         1 1HL       0.127700
     32 H2           2.3930    -1.0610    -0.3920 hc         1 1HL       0.115700
     33 H3           2.2630     0.7330    -0.5730 hc         1 1HL       0.115700
     34 H4           0.3400     0.7760     3.5350 ha         1 1HL       0.127000
     35 H5           0.8450     5.0690     3.1200 ha         1 1HL       0.194000
     36 H6           2.4760     4.6830     1.2940 ha         1 1HL       0.174000
     37 H7          -1.5450    -2.3370     2.2560 hn         1 1HL       0.487133
     38 H8          -0.2140    -2.9010     3.1270 hn         1 1HL       0.487133
     39 H9           3.8250    -1.3020     1.5060 hc         1 1HL       0.072033
     40 H10          3.7290    -0.1320     2.8960 hc         1 1HL       0.072033
     41 H11          4.1430     0.4650     1.2280 hc         1 1HL       0.072033
     42 H12         -0.5860     2.2480     5.0610 hn         1 1HL       0.337500
     43 H13         -3.6960     1.9790     7.8890 h4         1 1HL       0.042100
     44 H14         -3.6140     6.3310     8.1700 ha         1 1HL       0.171000
     45 H15         -2.0510     6.3300     6.1830 ha         1 1HL       0.184000
     46 H143        -0.5200    -3.4730     1.5700 hn         1 1HL       0.487133
@<TRIPOS>BOND
     1     1     2 1   
     2     1     3 1   
     3     1    27 1   
     4     1    31 1   
     5     2     6 1   
     6     2    32 1   
     7     2    33 1   
     8     3     4 1   
     9     4     5 2   
    10     4    14 1   
    11     5     6 1   
    12     6     7 1   
    13     6    15 1   
    14     7     8 ar  
    15     7    12 ar  
    16     8     9 ar  
    17     8    34 1   
    18     9    10 ar  
    19     9    16 1   
    20    10    11 ar  
    21    10    35 1   
    22    11    12 ar  
    23    11    36 1   
    24    12    13 1   
    25    14    37 1   
    26    14    38 1   
    27    14    46 1   
    28    15    39 1   
    29    15    40 1   
    30    15    41 1   
    31    16    17 1   
    32    16    42 1   
    33    17    18 1   
    34    17    19 2   
    35    18    20 ar  
    36    18    24 ar  
    37    20    21 ar  
    38    21    22 ar  
    39    21    43 1   
    40    22    23 ar  
    41    22    25 1   
    42    23    24 ar  
    43    23    44 1   
    44    24    45 1   
    45    25    26 3   
    46    27    28 1   
    47    27    29 1   
    48    27    30 1   
@<TRIPOS>SUBSTRUCTURE
     1 1HL         1 TEMP              0 ****  ****    0 ROOT
