@<TRIPOS>MOLECULE
molecule
   46    48     1     0     0
SMALL
bcc


@<TRIPOS>ATOM
      1 C1           0.0000     0.0000     0.0000 c3         1 1HL       0.104100
      2 C2           1.5350     0.0000     0.0000 c3         1 1HL      -0.154400
      3 O3          -0.4410    -1.1920     0.6600 os         1 1HL      -0.433400
      4 C4           0.1600    -1.5150     1.8210 c2         1 1HL       0.641500
      5 N5           1.2730    -1.0030     2.2180 n2         1 1HL      -0.606900
      6 C6           2.0120     0.0000     1.4560 c3         1 1HL       0.218500
      7 C7           1.7780     1.3610     2.0600 ca         1 1HL      -0.142300
      8 C8           0.9580     1.4940     3.1630 ca         1 1HL      -0.146000
      9 C9           0.7420     2.7480     3.7200 ca         1 1HL       0.060600
     10 C10          1.3510     3.8660     3.1640 ca         1 1HL      -0.081000
     11 C11          2.1700     3.7280     2.0610 ca         1 1HL      -0.126000
     12 C12          2.3890     2.4760     1.5110 ca         1 1HL       0.129900
     13 F13          3.1900     2.3440     0.4310 f          1 1HL      -0.131900
     14 N14         -0.4520    -2.4430     2.6290 nz         1 1HL      -0.729600
     15 C15          3.5070    -0.3260     1.5020 c3         1 1HL      -0.074100
     16 N16         -0.0890     2.8860     4.8380 ns         1 1HL      -0.469100
     17 C17          0.1980     3.8060     5.7800 c          1 1HL       0.582600
     18 C18         -0.6210     3.8830     7.0120 ca         1 1HL       0.372800
     19 O19          1.1260     4.5720     5.6190 o          1 1HL      -0.574100
     20 N20         -1.6320     3.0370     7.1820 nb         1 1HL      -0.702000
     21 C21         -2.3860     3.0660     8.2570 ca         1 1HL       0.449200
     22 C22         -2.1480     3.9990     9.2710 ca         1 1HL      -0.100300
     23 C23         -1.0920     4.9060     9.1270 ca         1 1HL      -0.060000
     24 C24         -0.3190     4.8380     7.9810 ca         1 1HL      -0.180300
     25 C25         -2.9740     4.0270    10.4400 cg         1 1HL       0.216800
     26 N26         -3.6190     4.0320    11.3750 n1         1 1HL      -0.310800
     27 C27         -0.5190     0.0160    -1.4390 c3         1 1HL       0.639900
     28 F28         -1.9170    -0.0180    -1.4300 f          1 1HL      -0.198967
     29 F29         -0.0850     1.1830    -2.0780 f          1 1HL      -0.198967
     30 F30         -0.0290    -1.1010    -2.1240 f          1 1HL      -0.198967
     31 H1          -0.3640     0.8690     0.5350 h1         1 1HL       0.109700
     32 H2           1.9000    -0.8880    -0.5030 hc         1 1HL       0.110700
     33 H3           1.9000     0.8880    -0.5030 hc         1 1HL       0.110700
     34 H4           0.5240     0.6150     3.6250 ha         1 1HL       0.123000
     35 H5           1.1300     4.8520     3.5540 ha         1 1HL       0.187000
     36 H6           2.6400     4.6010     1.6240 ha         1 1HL       0.172000
     37 H7          -1.4410    -2.2920     2.6210 hn         1 1HL       0.483467
     38 H8          -0.2520    -3.3630     2.2900 hn         1 1HL       0.483467
     39 H9           3.9320     0.0570     2.4220 hc         1 1HL       0.069367
     40 H10          4.0040     0.1350     0.6570 hc         1 1HL       0.069367
     41 H11          3.6440    -1.4000     1.4610 hc         1 1HL       0.069367
     42 H12         -0.9170     2.3300     4.9160 hn         1 1HL       0.343500
     43 H13         -3.2010     2.3600     8.3590 h4         1 1HL       0.041100
     44 H14         -0.8810     5.6400     9.8960 ha         1 1HL       0.169000
     45 H15          0.5070     5.5240     7.8350 ha         1 1HL       0.178000
     46 H143        -0.1020    -2.3540     3.5630 hn         1 1HL       0.483467
@<TRIPOS>BOND
     1    29    27 1   
     2    30    27 1   
     3    13    12 1   
     4    27    28 1   
     5    27     1 1   
     6     2     1 1   
     7     2     6 1   
     8    12    11 ar  
     9    12     7 ar  
    10    15     6 1   
    11     1     3 1   
    12    11    10 ar  
    13     6     7 1   
    14     6     5 1   
    15     7     8 ar  
    16     3     4 1   
    17    10     9 ar  
    18     5     4 2   
    19     4    14 1   
    20     8     9 ar  
    21     9    16 1   
    22    19    17 2   
    23    16    17 1   
    24    17    18 1   
    25    18    24 ar  
    26    18    20 ar  
    27    24    23 ar  
    28    20    21 ar  
    29    23    22 ar  
    30    21    22 ar  
    31    22    25 1   
    32    25    26 3   
    33     1    31 1   
    34     2    32 1   
    35     2    33 1   
    36     8    34 1   
    37    10    35 1   
    38    11    36 1   
    39    14    37 1   
    40    14    38 1   
    41    15    39 1   
    42    15    40 1   
    43    15    41 1   
    44    16    42 1   
    45    21    43 1   
    46    23    44 1   
    47    24    45 1   
    48    46    14 1   
@<TRIPOS>SUBSTRUCTURE
     1 1HL         1 TEMP              0 ****  ****    0 ROOT
