@<TRIPOS>MOLECULE
1HM
   46    49     1     0     0
SMALL
bcc


@<TRIPOS>ATOM
      1 C1           0.0000     0.0000     0.0000 c3         1 1HM       0.001000
      2 C2           1.5350     0.0000     0.0000 c3         1 1HM      -0.365000
      3 C4           0.1580    -1.5140     1.8200 c2         1 1HM      -0.167000
      4 C6           2.0120     0.0000     1.4570 c3         1 1HM       0.289000
      5 C12          2.3840     2.4770     1.5090 ca         1 1HM       0.069000
      6 C15          3.5050    -0.3270     1.5040 c3         1 1HM      -0.236000
      7 C17          0.1730     3.8290     5.7610 c2         1 1HM       0.265000
      8 C18         -0.7710     4.0530     6.8820 c2         1 1HM      -0.085000
      9 O3          -0.4420    -1.1910     0.6590 os         1 1HM      -0.170000
     10 N5           1.2710    -1.0040     2.2180 n2         1 1HM      -0.038000
     11 C7           1.7760     1.3610     2.0610 ca         1 1HM      -0.283000
     12 C8           0.9560     1.4930     3.1630 ca         1 1HM      -0.093000
     13 C9           0.7400     2.7480     3.7190 ca         1 1HM      -0.061000
     14 C10          1.3500     3.8660     3.1650 ca         1 1HM      -0.043000
     15 C11          2.1710     3.7280     2.0620 ca         1 1HM      -0.071000
     16 F13          3.1900     2.3430     0.4340 f          1 1HM      -0.083000
     17 N14         -0.4540    -2.4430     2.6270 nz         1 1HM       0.967000
     18 N16         -0.0920     2.8850     4.8360 ns         1 1HM       0.113000
     19 O19          1.1840     4.4960     5.6770 o          1 1HM      -0.360000
     20 N20         -1.8720     3.3150     6.9690 n2         1 1HM      -0.067000
     21 C21         -2.7370     3.4770     7.9440 c2         1 1HM      -0.031000
     22 C22         -2.5260     4.4410     8.9340 c2         1 1HM       0.013000
     23 C23         -1.3770     5.2370     8.8730 c2         1 1HM      -0.055000
     24 C24         -0.4890     5.0310     7.8330 c2         1 1HM      -0.082000
     25 C25         -3.4740     4.6130     9.9940 c1         1 1HM      -0.135000
     26 N26         -4.2370     4.7600    10.8230 n1         1 1HM       0.011000
     27 C27         -0.5180     0.0170    -1.4390 c3         1 1HM       0.397000
     28 F28         -0.0280    -1.1000    -2.1250 f          1 1HM      -0.114667
     29 F29         -1.9170    -0.0170    -1.4320 f          1 1HM      -0.114667
     30 F30         -0.0830     1.1830    -2.0780 f          1 1HM      -0.114667
     31 F31          4.2160     0.6370     0.7810 f          1 1HM      -0.038000
     32 H1          -0.3640     0.8690     0.5350 h1         1 1HM       0.092000
     33 H2           1.8840     0.8720    -0.5390 hc         1 1HM       0.081500
     34 H3           1.8840     0.0520     1.0240 hc         1 1HM       0.081500
     35 H4           3.9380    -0.1810     0.5210 DU         1 1HM       0.339000
     36 H5           3.9960     0.3270     2.2150 h1         1 1HM       0.088000
     37 H6           0.4510     0.6260     3.5700 ha         1 1HM       0.098000
     38 H7           1.2250     4.8370     3.6290 ha         1 1HM       0.164000
     39 H8           2.6680     4.5950     1.6470 ha         1 1HM       0.144000
     40 H9          -0.9940    -3.0700     2.0640 hn         1 1HM       0.025667
     41 H10         -1.0550    -1.9750     3.2770 hn         1 1HM       0.025667
     42 H11         -0.8860     2.2860     4.9450 hn         1 1HM       0.100000
     43 H12         -3.6250     2.8580     7.9870 h4         1 1HM       0.133000
     44 H13         -1.1740     5.9560     9.6580 ha         1 1HM       0.136000
     45 H14          0.3380     4.8970     8.5200 ha         1 1HM       0.148000
     46 H143         0.2300    -2.8770     3.2130 hn         1 1HM       0.025667
@<TRIPOS>BOND
     1     1     2 1   
     2     1     9 1   
     3     1    27 1   
     4     1    32 1   
     5     2     4 1   
     6     2    33 1   
     7     2    34 1   
     8     3     9 1   
     9     3    10 1   
    10     3    17 1   
    11     4     6 1   
    12     4    10 1   
    13     4    11 1   
    14     5    11 1   
    15     5    15 1   
    16     5    16 1   
    17     6    31 1   
    18     6    35 1   
    19     6    36 1   
    20     7     8 1   
    21     7    18 1   
    22     7    19 1   
    23     8    20 1   
    24     8    24 1   
    25    11    12 1   
    26    12    13 1   
    27    12    37 1   
    28    13    14 1   
    29    13    18 1   
    30    14    15 1   
    31    14    38 1   
    32    15    39 1   
    33    17    40 1   
    34    17    41 1   
    35    17    46 1   
    36    18    42 1   
    37    20    21 1   
    38    21    22 1   
    39    21    43 1   
    40    22    23 1   
    41    22    25 1   
    42    23    24 1   
    43    23    44 1   
    44    24    45 1   
    45    25    26 1   
    46    27    28 1   
    47    27    29 1   
    48    27    30 1   
    49    31    35 1   
@<TRIPOS>SUBSTRUCTURE
     1 1HM         1 TEMP              0 ****  ****    0 ROOT
