@<TRIPOS>MOLECULE
molecule
   46    48     1     0     0
SMALL
bcc


@<TRIPOS>ATOM
      1 C1           0.0000     0.0000     0.0000 c3         1 1HM       0.105100
      2 C2           1.5350     0.0000     0.0000 c3         1 1HM      -0.401400
      3 C4           0.1580    -1.5140     1.8200 c2         1 1HM       0.688500
      4 C6           2.0120     0.0000     1.4570 c3         1 1HM       0.253500
      5 C12          2.3840     2.4770     1.5090 ca         1 1HM       0.122900
      6 C15          3.5050    -0.3270     1.5040 c3         1 1HM      -0.136100
      7 C17          0.1730     3.8290     5.7610 c          1 1HM       0.580600
      8 C18         -0.7710     4.0530     6.8820 ca         1 1HM       0.391800
      9 O3          -0.4420    -1.1910     0.6590 os         1 1HM      -0.418400
     10 N5           1.2710    -1.0040     2.2180 n2         1 1HM      -0.613900
     11 C7           1.7760     1.3610     2.0610 ca         1 1HM      -0.277300
     12 C8           0.9560     1.4930     3.1630 ca         1 1HM      -0.118000
     13 C9           0.7400     2.7480     3.7190 ca         1 1HM       0.069600
     14 C10          1.3500     3.8660     3.1650 ca         1 1HM      -0.074000
     15 C11          2.1710     3.7280     2.0620 ca         1 1HM      -0.115000
     16 F13          3.1900     2.3430     0.4340 f          1 1HM      -0.129900
     17 N14         -0.4540    -2.4430     2.6270 nz         1 1HM      -0.731600
     18 N16         -0.0920     2.8850     4.8360 ns         1 1HM      -0.471100
     19 O19          1.1840     4.4960     5.6770 o          1 1HM      -0.558100
     20 N20         -1.8720     3.3150     6.9690 nb         1 1HM      -0.703000
     21 C21         -2.7370     3.4770     7.9440 ca         1 1HM       0.457200
     22 C22         -2.5260     4.4410     8.9340 ca         1 1HM      -0.113300
     23 C23         -1.3770     5.2370     8.8730 ca         1 1HM      -0.070000
     24 C24         -0.4890     5.0310     7.8330 ca         1 1HM      -0.190300
     25 C25         -3.4740     4.6130     9.9940 cg         1 1HM       0.212800
     26 N26         -4.2370     4.7600    10.8230 n1         1 1HM      -0.305800
     27 C27         -0.5180     0.0170    -1.4390 c3         1 1HM       0.661900
     28 F28         -0.0280    -1.1000    -2.1250 f          1 1HM      -0.195967
     29 F29         -1.9170    -0.0170    -1.4320 f          1 1HM      -0.195967
     30 F30         -0.0830     1.1830    -2.0780 f          1 1HM      -0.195967
     31 F31          4.2160     0.6370     0.7810 f          1 1HM      -0.140300
     32 H1          -0.3640     0.8690     0.5350 h1         1 1HM       0.077700
     33 H2           1.8840     0.8720    -0.5390 hc         1 1HM       0.170200
     34 H3           1.8840     0.0520     1.0240 hc         1 1HM       0.170200
     35 H4           3.9380    -0.1810     0.5210 h1         1 1HM       0.247700
     36 H5           3.9960     0.3270     2.2150 h1         1 1HM       0.247700
     37 H6           0.4510     0.6260     3.5700 ha         1 1HM       0.124000
     38 H7           1.2250     4.8370     3.6290 ha         1 1HM       0.194000
     39 H8           2.6680     4.5950     1.6470 ha         1 1HM       0.178000
     40 H9          -0.9940    -3.0700     2.0640 hn         1 1HM       0.487800
     41 H10         -1.0550    -1.9750     3.2770 hn         1 1HM       0.487800
     42 H11         -0.8860     2.2860     4.9450 hn         1 1HM       0.343500
     43 H12         -3.6250     2.8580     7.9870 h4         1 1HM       0.044100
     44 H13         -1.1740     5.9560     9.6580 ha         1 1HM       0.172000
     45 H14          0.3380     4.8970     8.5200 ha         1 1HM       0.180000
     46 H143         0.2300    -2.8770     3.2130 hn         1 1HM       0.487800
@<TRIPOS>BOND
     1    30    27 1   
     2    28    27 1   
     3    16     5 1   
     4    27    29 1   
     5    27     1 1   
     6     2     1 1   
     7     2     4 1   
     8    31     6 1   
     9     5    15 ar  
    10     5    11 ar  
    11     1     9 1   
    12    15    14 ar  
    13     6     4 1   
    14     4    11 1   
    15     4    10 1   
    16    11    12 ar  
    17     9     3 1   
    18    14    13 ar  
    19    10     3 2   
    20     3    17 1   
    21    12    13 ar  
    22    13    18 1   
    23    19     7 2   
    24    18     7 1   
    25     7     8 1   
    26     8    24 ar  
    27     8    20 ar  
    28    24    23 ar  
    29    20    21 ar  
    30    23    22 ar  
    31    21    22 ar  
    32    22    25 1   
    33    25    26 3   
    34     1    32 1   
    35     2    33 1   
    36     2    34 1   
    37     6    35 1   
    38     6    36 1   
    39    12    37 1   
    40    14    38 1   
    41    15    39 1   
    42    17    40 1   
    43    17    41 1   
    44    18    42 1   
    45    21    43 1   
    46    23    44 1   
    47    24    45 1   
    48    46    17 1   
@<TRIPOS>SUBSTRUCTURE
     1 1HM         1 TEMP              0 ****  ****    0 ROOT
