@<TRIPOS>MOLECULE
1HM
   46    48     1     0     0
SMALL
bcc


@<TRIPOS>ATOM
      1 C1           0.3740    -0.1380    -0.4310 c3         1 1HM       0.108100
      2 C2           1.7800     0.0640     0.0930 c3         1 1HM      -0.163400
      3 C4           0.2410    -1.7950     1.2590 c2         1 1HM       0.667500
      4 C6           1.8590    -0.0910     1.6310 c3         1 1HM       0.177500
      5 C12          1.9930     2.4230     2.0240 ca         1 1HM       0.100900
      6 C15          3.3700    -0.3260     2.0200 c3         1 1HM       0.173900
      7 C17         -1.7670     3.2120     5.5080 c          1 1HM       0.582600
      8 C18         -2.7680     2.8620     6.5830 ca         1 1HM       0.356800
      9 O3          -0.2150    -1.3830     0.0140 os         1 1HM      -0.438400
     10 N5           1.1060    -1.2800     2.0650 n2         1 1HM      -0.552900
     11 C7           1.4080     1.1760     2.3400 ca         1 1HM      -0.125300
     12 C8           0.4310     1.1400     3.3390 ca         1 1HM      -0.161000
     13 C9          -0.0020     2.3090     4.0080 ca         1 1HM       0.080600
     14 C10          0.5790     3.5480     3.6490 ca         1 1HM      -0.105000
     15 C11          1.5620     3.5940     2.6770 ca         1 1HM      -0.119000
     16 F13          2.9800     2.5370     1.1000 f          1 1HM      -0.135900
     17 N14         -0.4770    -3.0580     1.5690 nz         1 1HM      -0.789600
     18 N16         -0.9690     2.1860     5.0140 ns         1 1HM      -0.461100
     19 O19         -1.6700     4.3860     5.1120 o          1 1HM      -0.566100
     20 N20         -3.1750     1.5770     6.7490 nb         1 1HM      -0.674000
     21 C21         -4.0820     1.3300     7.7030 ca         1 1HM       0.431200
     22 C22         -4.6270     2.3380     8.5390 ca         1 1HM      -0.089300
     23 C23         -4.2000     3.6590     8.3580 ca         1 1HM      -0.058000
     24 C24         -3.2560     3.9290     7.3620 ca         1 1HM      -0.179300
     25 C25         -5.5820     1.9990     9.5300 cg         1 1HM       0.211800
     26 N26         -6.3650     1.7180    10.3420 n1         1 1HM      -0.306800
     27 C27          0.3590    -0.2580    -2.0030 c3         1 1HM       0.640900
     28 F28          1.0970    -1.3080    -2.4780 f          1 1HM      -0.209967
     29 F29         -0.9010    -0.4330    -2.5030 f          1 1HM      -0.209967
     30 F30          0.8560     0.8630    -2.6070 f          1 1HM      -0.209967
     31 F31          3.8850    -1.4620     1.4410 f          1 1HM      -0.228300
     32 H1          -0.3280     0.6860    -0.1250 h1         1 1HM       0.124700
     33 H2           2.1340     1.0830    -0.2210 hc         1 1HM       0.122200
     34 H3           2.4710    -0.6880    -0.3830 hc         1 1HM       0.122200
     35 H4           3.9490     0.5690     1.6560 h1         1 1HM       0.089700
     36 H5           3.4520    -0.4070     3.1390 h1         1 1HM       0.089700
     37 H6          -0.0110     0.1780     3.6440 ha         1 1HM       0.130000
     38 H7           0.2600     4.4860     4.1400 ha         1 1HM       0.196000
     39 H8           2.0290     4.5560     2.4050 ha         1 1HM       0.175000
     40 H9          -0.2440    -3.3870     2.5150 hn         1 1HM       0.488800
     41 H10         -0.1950    -3.7630     0.8730 hn         1 1HM       0.488800
     42 H11         -1.1390     1.2600     5.3420 hn         1 1HM       0.338500
     43 H12         -4.3960     0.2750     7.8140 h4         1 1HM       0.042100
     44 H13         -4.6000     4.4730     8.9830 ha         1 1HM       0.171000
     45 H14         -2.9010     4.9560     7.1750 ha         1 1HM       0.184000
     46 H143        -1.4880    -2.8880     1.4880 hn         1 1HM       0.488800
@<TRIPOS>BOND
     1     1     2 1   
     2     1     9 1   
     3     1    27 1   
     4     1    32 1   
     5     2     4 1   
     6     2    33 1   
     7     2    34 1   
     8     3     9 1   
     9     3    10 2   
    10     3    17 1   
    11     4     6 1   
    12     4    10 1   
    13     4    11 1   
    14     5    11 ar  
    15     5    15 ar  
    16     5    16 1   
    17     6    31 1   
    18     6    35 1   
    19     6    36 1   
    20     7     8 1   
    21     7    18 1   
    22     7    19 2   
    23     8    20 ar  
    24     8    24 ar  
    25    11    12 ar  
    26    12    13 ar  
    27    12    37 1   
    28    13    14 ar  
    29    13    18 1   
    30    14    15 ar  
    31    14    38 1   
    32    15    39 1   
    33    17    40 1   
    34    17    41 1   
    35    17    46 1   
    36    18    42 1   
    37    20    21 ar  
    38    21    22 ar  
    39    21    43 1   
    40    22    23 ar  
    41    22    25 1   
    42    23    24 ar  
    43    23    44 1   
    44    24    45 1   
    45    25    26 3   
    46    27    28 1   
    47    27    29 1   
    48    27    30 1   
@<TRIPOS>SUBSTRUCTURE
     1 1HM         1 TEMP              0 ****  ****    0 ROOT
