@<TRIPOS>MOLECULE
molecule
   21    22     1     0     0
SMALL
bcc


@<TRIPOS>ATOM
      1 C1           0.0000     0.0000     0.0000 ca         1 1HN       0.118100
      2 O1          -0.6850     0.0000    -1.1690 oh         1 1HN      -0.488100
      3 C2           1.3930     0.0000     0.0000 ca         1 1HN      -0.117600
      4 O2           1.5140    -0.0020    -2.3280 o          1 1HN      -0.828800
      5 C3           2.1050     0.0000     1.2140 ca         1 1HN      -0.060000
      6 O3           3.4730    -0.0020    -1.2810 o          1 1HN      -0.828800
      7 C4           1.4540    -0.0000     2.4030 ca         1 1HN      -0.182000
      8 C5          -0.6450     0.0000     3.6630 ca         1 1HN      -0.124000
      9 C6          -2.0080     0.0000     3.6700 ca         1 1HN      -0.147000
     10 C7          -2.7300     0.0000     2.4780 ca         1 1HN      -0.160000
     11 C8          -2.0930     0.0130     1.2740 ca         1 1HN      -0.102000
     12 C9           2.1260    -0.0010    -1.2770 c          1 1HN       0.879200
     13 C4A          0.0450     0.0000     2.4410 ca         1 1HN      -0.028000
     14 C8A         -0.6900     0.0060     1.2290 ca         1 1HN      -0.074000
     15 HO1         -0.9300    -0.8830    -1.3900 ho         1 1HN       0.409000
     16 H3           3.1880     0.0000     1.1980 ha         1 1HN       0.158000
     17 H4           2.0180    -0.0000     3.3280 ha         1 1HN       0.112000
     18 H5          -0.0970     0.0000     4.5980 ha         1 1HN       0.117000
     19 H6          -2.5370    -0.0100     4.6150 ha         1 1HN       0.107000
     20 H7          -3.8130     0.0000     2.5090 ha         1 1HN       0.109000
     21 H8          -2.6670     0.0130     0.3550 ha         1 1HN       0.132000
@<TRIPOS>BOND
     1    14     1 ar  
     2     1     3 ar  
     3     1     2 1   
     4     2    15 1   
     5     5     3 ar  
     6     3    12 1   
     7    12     4 1   
     8     7     5 ar  
     9     5    16 1   
    10    12     6 1   
    11    13     7 ar  
    12     7    17 1   
    13     9     8 ar  
    14     8    13 ar  
    15     8    18 1   
    16     9    10 ar  
    17     9    19 1   
    18    10    11 ar  
    19    10    20 1   
    20    11    14 ar  
    21    11    21 1   
    22    13    14 ar  
@<TRIPOS>SUBSTRUCTURE
     1 1HN         1 TEMP              0 ****  ****    0 ROOT
