@<TRIPOS>MOLECULE
1HN
   21    22     1     0     0
SMALL
bcc


@<TRIPOS>ATOM
      1 C1         -0.0290   -0.0830    0.0150 ca        1 1HN      0.187100
      2 O1         -0.8340   -0.1200   -1.0890 oh        1 1HN     -0.552100
      3 C2          1.3610   -0.0830   -0.0280 ca        1 1HN     -0.233600
      4 O2          1.5170   -0.1620   -2.4190 o         1 1HN     -0.833300
      5 C3          2.0790   -0.0430    1.1880 ca        1 1HN     -0.040000
      6 O3          3.4120   -0.1200   -1.2520 o         1 1HN     -0.833300
      7 C4          1.4410   -0.0030    2.4060 ca        1 1HN     -0.219000
      8 C5         -0.6680    0.0380    3.7140 ca        1 1HN     -0.140000
      9 C6         -2.0400    0.0380    3.7540 ca        1 1HN     -0.136000
     10 C7         -2.7900   -0.0020    2.5540 ca        1 1HN     -0.182000
     11 C8         -2.1470   -0.0410    1.3400 ca        1 1HN     -0.076000
     12 C9          2.1530   -0.1250   -1.3190 c         1 1HN      0.919200
     13 C4A         0.0250   -0.0020    2.4720 ca        1 1HN     -0.005000
     14 C8A        -0.7290   -0.0420    1.2700 ca        1 1HN     -0.085000
     15 HO1        -0.2700   -0.1460   -1.8940 ho        1 1HN      0.487000
     16 H3          3.1810   -0.0440    1.1160 ha        1 1HN      0.156000
     17 H4          2.0140    0.0280    3.3430 ha        1 1HN      0.111000
     18 H5         -0.0770    0.0690    4.6410 ha        1 1HN      0.115000
     19 H6         -2.5730    0.0690    4.7140 ha        1 1HN      0.108000
     20 H7         -3.8870   -0.0010    2.6080 ha        1 1HN      0.111000
     21 H8         -2.7110   -0.0720    0.3950 ha        1 1HN      0.141000
@<TRIPOS>BOND
     1    1    2 1   
     2    1    3 ar  
     3    1   14 ar  
     4    2   15 1   
     5    3    5 ar  
     6    3   12 1   
     7    4   12 1   
     8    5    7 ar  
     9    5   16 1   
    10    6   12 1   
    11    7   13 ar  
    12    7   17 1   
    13    8    9 ar  
    14    8   13 ar  
    15    8   18 1   
    16    9   10 ar  
    17    9   19 1   
    18   10   11 ar  
    19   10   20 1   
    20   11   14 ar  
    21   11   21 1   
    22   13   14 ar  
@<TRIPOS>SUBSTRUCTURE
     1 1HN         1 TEMP              0 ****  ****    0 ROOT
