@<TRIPOS>MOLECULE
1HN
   21    22     1     0     0
SMALL
bcc


@<TRIPOS>ATOM
      1 C1           0.0050     0.0870     0.1130 ca         1 1HN       0.187100
      2 O1          -0.8590     0.1370    -0.9450 oh         1 1HN      -0.552100
      3 C2           1.3910     0.0790    -0.0060 ca         1 1HN      -0.233600
      4 O2           3.3720     0.1130    -1.3400 o          1 1HN      -0.833300
      5 C3           2.1740     0.0250     1.1690 ca         1 1HN      -0.040000
      6 O3           1.4160     0.1740    -2.4020 o          1 1HN      -0.833300
      7 C4           1.6030    -0.0190     2.4200 ca         1 1HN      -0.219000
      8 C5          -0.4310    -0.0570     3.8400 ca         1 1HN      -0.140000
      9 C6          -1.7990    -0.0490     3.9550 ca         1 1HN      -0.136000
     10 C7          -2.6120     0.0040     2.7990 ca         1 1HN      -0.182000
     11 C8          -2.0370     0.0480     1.5520 ca         1 1HN      -0.076000
     12 C9           2.1110     0.1250    -1.3390 c          1 1HN       0.919200
     13 C4A          0.1940    -0.0120     2.5620 ca         1 1HN      -0.005000
     14 C8A         -0.6250     0.0410     1.4040 ca         1 1HN      -0.085000
     15 HO1         -0.3400     0.1650    -1.7790 ho         1 1HN       0.487000
     16 H3           3.2710     0.0200     1.0360 ha         1 1HN       0.156000
     17 H4           2.2270    -0.0610     3.3220 ha         1 1HN       0.111000
     18 H5           0.2090    -0.0980     4.7330 ha         1 1HN       0.115000
     19 H6          -2.2780    -0.0840     4.9440 ha         1 1HN       0.108000
     20 H7          -3.7050     0.0100     2.9130 ha         1 1HN       0.111000
     21 H8          -2.6520     0.0900     0.6390 ha         1 1HN       0.141000
@<TRIPOS>BOND
     1     1     2 1   
     2     1     3 ar  
     3     1    14 ar  
     4     2    15 1   
     5     3     5 ar  
     6     3    12 1   
     7     4    12 1   
     8     5     7 ar  
     9     5    16 1   
    10     6    12 1   
    11     7    13 ar  
    12     7    17 1   
    13     8     9 ar  
    14     8    13 ar  
    15     8    18 1   
    16     9    10 ar  
    17     9    19 1   
    18    10    11 ar  
    19    10    20 1   
    20    11    14 ar  
    21    11    21 1   
    22    13    14 ar  
@<TRIPOS>SUBSTRUCTURE
     1 1HN         1 TEMP              0 ****  ****    0 ROOT
