@<TRIPOS>MOLECULE
1HO
   43    45     1     0     0
SMALL
bcc


@<TRIPOS>ATOM
      1 C27          0.0600    -0.5590    -0.0190 ca         1 1HO      -0.179300
      2 C28          3.6850    -0.7590     0.7910 cg         1 1HO       0.211800
      3 C26          1.4200    -0.8520    -0.1580 ca         1 1HO      -0.058000
      4 O22         -2.5460     0.4070     0.2150 o          1 1HO      -0.566100
      5 C20         -1.8530     0.3950     1.2460 c          1 1HO       0.582600
      6 N19         -2.3830     0.6400     2.5080 ns         1 1HO      -0.462100
      7 C15         -4.7800     0.6650     1.9030 ca         1 1HO      -0.096000
      8 C16         -6.0790     0.9810     2.2540 ca         1 1HO      -0.125000
      9 C17         -6.3700     1.6040     3.4850 ca         1 1HO       0.127900
     10 C1          -3.8410     3.8580     6.6930 c2         1 1HO       0.658500
     11 C3          -5.6200     2.6060     5.7080 c3         1 1HO       0.134500
     12 C8          -5.3270     1.9350     4.3780 ca         1 1HO      -0.140300
     13 C4          -6.2390     4.0670     5.4650 c3         1 1HO       0.366600
     14 C5          -5.0800     5.0290     5.0620 c3         1 1HO       0.082400
     15 C9          -6.6840     1.7290     6.4770 c3         1 1HO       0.178900
     16 N2          -4.4320     2.7190     6.5590 n2         1 1HO      -0.546900
     17 O6          -4.0930     5.0930     6.1070 os         1 1HO      -0.426400
     18 F10         -6.8510     2.1070     7.7870 f          1 1HO      -0.218300
     19 F11         -7.2360     4.0860     4.5270 f          1 1HO      -0.192300
     20 F12         -6.8810     4.5180     6.5980 f          1 1HO      -0.192300
     21 C13         -4.0160     1.6030     4.0130 ca         1 1HO      -0.159000
     22 C14         -3.7160     0.9670     2.7870 ca         1 1HO       0.074600
     23 C21         -0.3780     0.0840     1.1550 ca         1 1HO       0.356800
     24 N23          0.4620     0.4390     2.1630 nb         1 1HO      -0.675000
     25 C24          1.7620     0.1570     2.0160 ca         1 1HO       0.430200
     26 C25          2.2950    -0.4920     0.8720 ca         1 1HO      -0.089300
     27 N29          4.8250    -0.9780     0.7270 n1         1 1HO      -0.306800
     28 F18         -7.6650     1.8780     3.7650 f          1 1HO      -0.121900
     29 N7          -2.7160     4.0500     7.6410 nz         1 1HO      -0.787600
     30 H1          -0.6630    -0.8140    -0.8110 ha         1 1HO       0.185000
     31 H2           1.7920    -1.3550    -1.0650 ha         1 1HO       0.172000
     32 H3          -1.7570     0.6640     3.2830 hn         1 1HO       0.336500
     33 H4          -4.5840     0.1780     0.9300 ha         1 1HO       0.195000
     34 H5          -6.9130     0.7440     1.5710 ha         1 1HO       0.177000
     35 H6          -5.4400     6.0910     4.9770 h1         1 1HO       0.123700
     36 H7          -4.5980     4.6760     4.1150 h1         1 1HO       0.123700
     37 H8          -7.6630     1.8600     5.9340 h1         1 1HO       0.095200
     38 H9          -6.3500     0.6570     6.4370 h1         1 1HO       0.095200
     39 H10         -3.0460     4.6550     8.4060 hn         1 1HO       0.489133
     40 H11         -2.4020     3.1460     8.0220 hn         1 1HO       0.489133
     41 H12         -3.1800     1.8180     4.6960 ha         1 1HO       0.122000
     42 H13          2.4230     0.4600     2.8500 h4         1 1HO       0.042100
     43 H73         -1.9450     4.5170     7.1460 hn         1 1HO       0.489133
@<TRIPOS>BOND
     1     1     3 ar  
     2     1    23 ar  
     3     1    30 1   
     4     2    26 1   
     5     2    27 3   
     6     3    26 ar  
     7     3    31 1   
     8     4     5 2   
     9     5     6 1   
    10     5    23 1   
    11     6    22 1   
    12     6    32 1   
    13     7     8 ar  
    14     7    22 ar  
    15     7    33 1   
    16     8     9 ar  
    17     8    34 1   
    18     9    12 ar  
    19     9    28 1   
    20    10    16 2   
    21    10    17 1   
    22    10    29 1   
    23    11    12 1   
    24    11    13 1   
    25    11    15 1   
    26    11    16 1   
    27    12    21 ar  
    28    13    14 1   
    29    13    19 1   
    30    13    20 1   
    31    14    17 1   
    32    14    35 1   
    33    14    36 1   
    34    15    18 1   
    35    15    37 1   
    36    15    38 1   
    37    21    22 ar  
    38    21    41 1   
    39    23    24 ar  
    40    24    25 ar  
    41    25    26 ar  
    42    25    42 1   
    43    29    39 1   
    44    29    40 1   
    45    29    43 1   
@<TRIPOS>SUBSTRUCTURE
     1 1HO         1 TEMP              0 ****  ****    0 ROOT
