@<TRIPOS>MOLECULE
molecule
   43    45     1     0     0
SMALL
bcc


@<TRIPOS>ATOM
      1 C27          0.0000     0.0000     0.0000 ca         1 1HO      -0.187300
      2 C28          3.4800     0.0000     1.2830 cg         1 1HO       0.218800
      3 C26          1.3840     0.0000     0.0000 ca         1 1HO      -0.063000
      4 O22         -2.7750     0.0000     0.1780 o          1 1HO      -0.579100
      5 C20         -2.1610     0.0040     1.2270 c          1 1HO       0.579600
      6 N19         -2.8270     0.0100     2.3980 ns         1 1HO      -0.464100
      7 C15         -4.9700    -0.4980     1.4070 ca         1 1HO      -0.072000
      8 C16         -6.3480    -0.4050     1.4230 ca         1 1HO      -0.135000
      9 C17         -6.9850     0.2900     2.4370 ca         1 1HO       0.151900
     10 C1          -6.0070     3.3770     5.9610 c2         1 1HO       0.647500
     11 C3          -6.9370     1.6520     4.5380 c3         1 1HO       0.142500
     12 C8          -6.2410     0.8950     3.4360 ca         1 1HO      -0.144300
     13 C4          -7.7550     2.7970     3.9330 c3         1 1HO       0.352600
     14 C5          -8.1800     3.7330     5.0750 c3         1 1HO       0.100400
     15 C9          -7.8720     0.7060     5.2940 c3         1 1HO       0.178900
     16 N2          -5.9410     2.1910     5.4610 n2         1 1HO      -0.612900
     17 O6          -6.9930     4.2500     5.6860 os         1 1HO      -0.416400
     18 F10         -8.8240     0.1870     4.4120 f          1 1HO      -0.187300
     19 F11         -6.9760     3.5030     3.0100 f          1 1HO      -0.181300
     20 F12         -8.8890     2.2810     3.2980 f          1 1HO      -0.181300
     21 C13         -4.8640     0.8050     3.4250 ca         1 1HO      -0.115000
     22 C14         -4.2230     0.1070     2.4090 ca         1 1HO       0.048600
     23 C21         -0.6790     0.0050     1.2170 ca         1 1HO       0.374800
     24 N23         -0.0170     0.0100     2.3680 nb         1 1HO      -0.698000
     25 C24          1.2960     0.0100     2.4090 ca         1 1HO       0.449200
     26 C25          2.0490     0.0000     1.2310 ca         1 1HO      -0.097300
     27 N29          4.6160    -0.0100     1.3070 n1         1 1HO      -0.313800
     28 H1          -0.5420    -0.0370    -0.9370 ha         1 1HO       0.178000
     29 H2           1.8610    -0.0140    -0.9730 ha         1 1HO       0.168000
     30 H3          -2.3220    -0.0290     3.2610 hn         1 1HO       0.345500
     31 H4          -4.4760    -1.0790     0.6370 ha         1 1HO       0.186000
     32 H5          -6.9310    -0.8790     0.6430 ha         1 1HO       0.171000
     33 H6          -8.8360     3.1900     5.7450 h1         1 1HO       0.120700
     34 H7          -8.7190     4.5740     4.6540 h1         1 1HO       0.120700
     35 H8          -8.4050     1.2590     6.0580 h1         1 1HO       0.062200
     36 H9          -7.2910    -0.0810     5.7590 h1         1 1HO       0.062200
     37 H10         -4.2360     4.1170     6.3080 hn         1 1HO       0.486800
     38 H11         -4.7290     2.9870     7.3820 hn         1 1HO       0.486800
     39 H12         -4.2830     1.2780     4.2080 ha         1 1HO       0.130000
     40 H13          1.8070     0.0150     3.3650 h4         1 1HO       0.041100
     41 H73         -5.4060     4.3730     7.5260 hn         1 1HO       0.486800
     42 F18         -8.3330     0.3800     2.4490 f          1 1HO      -0.109900
     43 N7          -5.0180     3.7700     6.8280 nz         1 1HO      -0.731600
@<TRIPOS>BOND
     1    19    13 1
     2    20    13 1
     3    42     9 1
     4    13    14 1
     5    13    11 1
     6    18    15 1
     7    15    11 1
     8     9     8 ar
     9     9    12 ar
    10    14    17 1
    11    11    12 1
    12    11    16 1
    13     8     7 ar
    14    12    21 ar
    15    17    10 1
    16    16    10 2
    17     7    22 ar
    18    10    43 1
    19    21    22 ar
    20    22     6 1
    21     4     5 2
    22     6     5 1
    23     5    23 1
    24    23     1 ar
    25    23    24 ar
    26     1     3 ar
    27    24    25 ar
    28     3    26 ar
    29    25    26 ar
    30    26     2 1
    31     2    27 3
    32     1    28 1
    33     3    29 1
    34     6    30 1
    35     7    31 1
    36     8    32 1
    37    14    33 1
    38    14    34 1
    39    15    35 1
    40    15    36 1
    41    43    37 1
    42    43    38 1
    43    21    39 1
    44    25    40 1
    45    41    43 1
@<TRIPOS>SUBSTRUCTURE
     1 1HO         1 TEMP              0 ****  ****    0 ROOT
