@<TRIPOS>MOLECULE
1HP
   30    32     1     0     0
SMALL
bcc


@<TRIPOS>ATOM
      1 CAI          0.0000     0.0000     0.0000 ca         1 1HP      -0.059000
      2 CAQ          1.3850     0.0000     0.0000 ca         1 1HP      -0.366500
      3 NAR          2.3490     0.0000     0.9940 na         1 1HP       0.290700
      4 CAA          2.1090     0.0000     2.4390 c3         1 1HP      -0.000400
      5 CAM          3.5650    -0.0010     0.3740 cc         1 1HP       0.319700
      6 NAB          4.7820    -0.0010     1.0190 nv         1 1HP      -0.558800
      7 NAK          3.4030    -0.0010    -0.9270 nd         1 1HP      -0.588700
      8 CAP          2.0790    -0.0020    -1.2240 ca         1 1HP       0.498300
      9 NAJ          1.4070    -0.0010    -2.3750 nb         1 1HP      -0.509000
     10 CAH          0.0930     0.0000    -2.4070 ca         1 1HP       0.387200
     11 CAO         -0.6590    -0.0050    -1.2310 cp         1 1HP      -0.141300
     12 CAN         -2.1420    -0.0050    -1.2890 cp         1 1HP      -0.039000
     13 CAF         -2.8870    -0.0050    -0.1100 ca         1 1HP      -0.081000
     14 CAD         -4.2640    -0.0030    -0.1670 ca         1 1HP      -0.134000
     15 CAL         -4.9100    -0.0030    -1.3960 ca         1 1HP       0.124100
     16 OAC         -6.2680    -0.0030    -1.4480 oh         1 1HP      -0.501100
     17 CAE         -4.1720    -0.0030    -2.5710 ca         1 1HP      -0.134000
     18 CAG         -2.7930     0.0020    -2.5210 ca         1 1HP      -0.081000
     19 HAI         -0.5560    -0.0040     0.9290 ha         1 1HP       0.113000
     20 HAA1         3.0460     0.1490     2.9610 h1         1 1HP       0.021033
     21 HAA2         1.6780    -0.9490     2.7330 h1         1 1HP       0.021033
     22 HAA3         1.4250     0.8010     2.6910 h1         1 1HP       0.021033
     23 HAB1         5.2420     0.8650     1.2190 hn         1 1HP       0.276800
     24 HAB2         5.2260    -0.8680     1.2490 hn         1 1HP       0.276800
     25 HAH         -0.4160    -0.0040    -3.3630 h4         1 1HP      -0.011900
     26 HAF         -2.3830    -0.0050     0.8490 ha         1 1HP       0.111500
     27 HAD         -4.8440    -0.0030     0.7480 ha         1 1HP       0.114000
     28 HOAC        -6.5820    -0.8920    -1.4610 ho         1 1HP       0.403000
     29 HAE         -4.6780    -0.0000    -3.5280 ha         1 1HP       0.114000
     30 HAG         -2.2170     0.0020    -3.4380 ha         1 1HP       0.111500
@<TRIPOS>BOND
     1     1     2 ar  
     2     1    11 ar  
     3     1    19 1   
     4     2     3 1   
     5     2     8 ar  
     6     3     4 1   
     7     3     5 1   
     8     4    20 1   
     9     4    21 1   
    10     4    22 1   
    11     5     6 1   
    12     5     7 2   
    13     6    23 1   
    14     6    24 1   
    15     7     8 1   
    16     8     9 ar  
    17     9    10 ar  
    18    10    11 ar  
    19    10    25 1   
    20    11    12 1   
    21    12    13 ar  
    22    12    18 ar  
    23    13    14 ar  
    24    13    26 1   
    25    14    15 ar  
    26    14    27 1   
    27    15    16 1   
    28    15    17 ar  
    29    16    28 1   
    30    17    18 ar  
    31    17    29 1   
    32    18    30 1   
@<TRIPOS>SUBSTRUCTURE
     1 1HP         1 TEMP              0 ****  ****    0 ROOT
