@<TRIPOS>MOLECULE
1HP
   30    32     1     0     0
SMALL
bcc


@<TRIPOS>ATOM
      1 CAI         -0.0020     0.1450     0.0920 ca         1 1HP      -0.080000
      2 CAQ          1.3870     0.0350     0.0660 ca         1 1HP      -0.193500
      3 NAR          2.3730     0.1350     1.0590 na         1 1HP      -0.174300
      4 CAA          2.1670    -0.0390     2.4580 c3         1 1HP       0.029600
      5 CAM          3.6210    -0.1050     0.3810 cc         1 1HP       0.597700
      6 NAB          4.8260    -0.2290     1.0940 nv         1 1HP      -0.855800
      7 NAK          3.4820    -0.2410    -0.9710 nd         1 1HP      -0.666700
      8 CAP          2.0860    -0.1720    -1.2070 ca         1 1HP       0.552300
      9 NAJ          1.4220    -0.2590    -2.3920 nb         1 1HP      -0.611000
     10 CAH          0.0900    -0.1540    -2.3200 ca         1 1HP       0.395200
     11 CAO         -0.6690     0.0430    -1.1320 cp         1 1HP      -0.145300
     12 CAN         -2.1220     0.1350    -1.2030 cp         1 1HP      -0.068000
     13 CAF         -2.8460    -0.7040    -2.0620 ca         1 1HP      -0.083000
     14 CAD         -4.2330    -0.6230    -2.1320 ca         1 1HP      -0.184500
     15 CAL         -4.9080     0.3120    -1.3350 ca         1 1HP       0.128100
     16 OAC         -6.2760     0.4520    -1.3480 oh         1 1HP      -0.496100
     17 CAE         -4.1990     1.1630    -0.4700 ca         1 1HP      -0.184500
     18 CAG         -2.8140     1.0660    -0.4110 ca         1 1HP      -0.083000
     19 HAI         -0.5550     0.2970     1.0300 ha         1 1HP       0.141000
     20 HAA1         2.4450    -1.0770     2.7880 h1         1 1HP       0.052367
     21 HAA2         1.0860     0.1460     2.7000 h1         1 1HP       0.052367
     22 HAA3         2.8000     0.7000     3.0200 h1         1 1HP       0.052367
     23 HAB1         4.9060     0.4140     1.8540 hn         1 1HP       0.407800
     24 HAB2         5.6290    -0.2250     0.4960 hn         1 1HP       0.407800
     25 HAH         -0.4320    -0.2220    -3.2930 h4         1 1HP       0.026100
     26 HAF         -2.3130    -1.4420    -2.6820 ha         1 1HP       0.138000
     27 HAD         -4.7940    -1.2850    -2.8060 ha         1 1HP       0.144000
     28 HOAC        -6.6350    -0.1810    -1.9870 ho         1 1HP       0.420000
     29 HAE         -4.7470     1.8920     0.1440 ha         1 1HP       0.144000
     30 HAG         -2.2520     1.7350     0.2580 ha         1 1HP       0.138000
@<TRIPOS>BOND
     1     1     2 ar  
     2     1    11 ar  
     3     1    19 1   
     4     2     3 1   
     5     2     8 ar  
     6     3     4 1   
     7     3     5 1   
     8     4    20 1   
     9     4    21 1   
    10     4    22 1   
    11     5     6 1   
    12     5     7 2   
    13     6    23 1   
    14     6    24 1   
    15     7     8 1   
    16     8     9 ar  
    17     9    10 ar  
    18    10    11 ar  
    19    10    25 1   
    20    11    12 1   
    21    12    13 ar  
    22    12    18 ar  
    23    13    14 ar  
    24    13    26 1   
    25    14    15 ar  
    26    14    27 1   
    27    15    16 1   
    28    15    17 ar  
    29    16    28 1   
    30    17    18 ar  
    31    17    29 1   
    32    18    30 1   
@<TRIPOS>SUBSTRUCTURE
     1 1HP         1 TEMP              0 ****  ****    0 ROOT
