@<TRIPOS>MOLECULE
molecule
   30    32     1     0     0
SMALL
bcc


@<TRIPOS>ATOM
      1 CAI          0.0000     0.0000     0.0000 ca         1 1HP      -0.082000
      2 CAQ          1.3850     0.0000     0.0000 ca         1 1HP      -0.212500
      3 NAR          2.3490     0.0000     0.9940 na         1 1HP      -0.168300
      4 CAA          2.1090     0.0000     2.4390 c3         1 1HP       0.037600
      5 CAM          3.5650    -0.0010     0.3740 cc         1 1HP       0.659700
      6 NAB          4.7820    -0.0010     1.0190 nv         1 1HP      -1.005800
      7 NAK          3.4030    -0.0010    -0.9270 nd         1 1HP      -0.672700
      8 CAP          2.0790    -0.0020    -1.2240 ca         1 1HP       0.588300
      9 NAJ          1.4070    -0.0010    -2.3750 nb         1 1HP      -0.642000
     10 CAH          0.0930     0.0000    -2.4070 ca         1 1HP       0.429200
     11 CAO         -0.6590    -0.0050    -1.2310 cp         1 1HP      -0.158300
     12 CAN         -2.1420    -0.0050    -1.2890 cp         1 1HP      -0.035000
     13 CAF         -2.8870    -0.0050    -0.1100 ca         1 1HP      -0.109000
     14 CAD         -4.2640    -0.0030    -0.1670 ca         1 1HP      -0.148500
     15 CAL         -4.9100    -0.0030    -1.3960 ca         1 1HP       0.105100
     16 OAC         -6.2680    -0.0030    -1.4480 oh         1 1HP      -0.522100
     17 CAE         -4.1720    -0.0030    -2.5710 ca         1 1HP      -0.148500
     18 CAG         -2.7930     0.0020    -2.5210 ca         1 1HP      -0.109000
     19 HAI         -0.5560    -0.0040     0.9290 ha         1 1HP       0.135000
     20 HAA1         3.0460     0.1490     2.9610 h1         1 1HP       0.052700
     21 HAA2         1.6780    -0.9490     2.7330 h1         1 1HP       0.052700
     22 HAA3         1.4250     0.8010     2.6910 h1         1 1HP       0.052700
     23 HAB1         5.2420     0.8650     1.2190 hn         1 1HP       0.448300
     24 HAB2         5.2260    -0.8680     1.2490 hn         1 1HP       0.448300
     25 HAH         -0.4160    -0.0040    -3.3630 h4         1 1HP       0.030100
     26 HAF         -2.3830    -0.0050     0.8490 ha         1 1HP       0.135500
     27 HAD         -4.8440    -0.0030     0.7480 ha         1 1HP       0.142000
     28 HOAC        -6.5820    -0.8920    -1.4610 ho         1 1HP       0.420000
     29 HAE         -4.6780    -0.0000    -3.5280 ha         1 1HP       0.142000
     30 HAG         -2.2170     0.0020    -3.4380 ha         1 1HP       0.135500
@<TRIPOS>BOND
     1    14    13 ar
     2    14    15 ar
     3    13    12 ar
     4    16    15 1
     5    15    17 ar
     6    10     9 ar
     7    10    11 ar
     8    12    11 1
     9    12    18 ar
    10     9     8 ar
    11    11     1 ar
    12    17    18 ar
    13     8     2 ar
    14     8     7 1
    15     1     2 ar
    16     2     3 1
    17     7     5 2
    18     3     5 1
    19     3     4 1
    20     5     6 1
    21     1    19 1
    22     4    20 1
    23     4    21 1
    24     4    22 1
    25     6    23 1
    26     6    24 1
    27    10    25 1
    28    13    26 1
    29    14    27 1
    30    16    28 1
    31    17    29 1
    32    18    30 1
@<TRIPOS>SUBSTRUCTURE
     1 1HP         1 TEMP              0 ****  ****    0 ROOT
