@<TRIPOS>MOLECULE
1HQ
   43    45     1     0     0
SMALL
bcc


@<TRIPOS>ATOM
      1 C2           0.0220     0.8500    -0.1740 ca         1 1HQ      -0.058000
      2 C3           1.3780     0.5230    -0.0760 ca         1 1HQ      -0.180300
      3 C4           1.8540    -0.0430     1.1230 ca         1 1HQ       0.357800
      4 N5           1.0540    -0.2920     2.1930 nb         1 1HQ      -0.673000
      5 C6          -0.2430     0.0210     2.0860 ca         1 1HQ       0.431200
      6 N9           3.9110    -0.5290     2.4200 ns         1 1HQ      -0.460100
      7 C15          7.9200    -1.4870     3.2960 ca         1 1HQ       0.096900
      8 C1          -0.8110     0.5980     0.9210 ca         1 1HQ      -0.090300
      9 C7           3.3210    -0.3960     1.1690 c          1 1HQ       0.582600
     10 O8           3.9550    -0.5390     0.1090 o          1 1HQ      -0.568100
     11 C10         -2.1950     0.9050     0.8840 cg         1 1HQ       0.212800
     12 N11         -3.3300     1.1550     0.8560 n1         1 1HQ      -0.308800
     13 C12          5.2500    -0.8630     2.6640 ca         1 1HQ       0.078600
     14 C13          6.2700    -0.6900     1.7010 ca         1 1HQ      -0.105000
     15 C14          7.5820    -0.9950     2.0210 ca         1 1HQ      -0.118000
     16 C16          6.9160    -1.7010     4.2680 ca         1 1HQ      -0.118300
     17 C17          5.6000    -1.3690     3.9390 ca         1 1HQ      -0.149000
     18 C19          7.2710    -2.2540     5.6370 c3         1 1HQ       0.153500
     19 C20          8.0710    -3.5750     5.5150 c3         1 1HQ      -0.162400
     20 C21          7.1610    -4.7710     5.3430 c3         1 1HQ       0.139400
     21 O22          6.1930    -4.8610     6.4220 os         1 1HQ      -0.443400
     22 C23          5.7160    -3.6200     6.8100 c2         1 1HQ       0.665500
     23 N24          6.0960    -2.4260     6.5010 n2         1 1HQ      -0.559900
     24 C25          8.2370    -1.1890     6.3510 c3         1 1HQ       0.422900
     25 F26          7.6190     0.0040     6.6120 f          1 1HQ      -0.222300
     26 F27          8.6290    -1.6150     7.5980 f          1 1HQ      -0.222300
     27 N28          4.6020    -3.8570     7.7650 nz         1 1HQ      -0.791600
     28 F18          9.2300    -1.7370     3.5540 f          1 1HQ      -0.140900
     29 H1          -0.3790     1.2950    -1.0990 ha         1 1HQ       0.171000
     30 H2           2.0690     0.6920    -0.9180 ha         1 1HQ       0.184000
     31 H3          -0.8700    -0.1950     2.9710 h4         1 1HQ       0.042100
     32 H4           3.3290    -0.4490     3.2250 hn         1 1HQ       0.339500
     33 H5           6.0350    -0.3100     0.6900 ha         1 1HQ       0.194000
     34 H6           8.3830    -0.8460     1.2780 ha         1 1HQ       0.173000
     35 H7           4.8000    -1.4730     4.6890 ha         1 1HQ       0.134000
     36 H8           8.6970    -3.7070     6.4400 hc         1 1HQ       0.109700
     37 H9           8.7720    -3.5320     4.6400 hc         1 1HQ       0.109700
     38 H10          7.7190    -5.7430     5.4340 h1         1 1HQ       0.100700
     39 H11          6.5860    -4.7300     4.3810 h1         1 1HQ       0.100700
     40 H12          9.1330    -1.0470     5.6760 h2         1 1HQ       0.115700
     41 H13          4.9760    -4.3810     8.5680 hn         1 1HQ       0.486133
     42 H14          4.2000    -2.9650     8.0850 hn         1 1HQ       0.486133
     43 H283         3.8840    -4.4230     7.2960 hn         1 1HQ       0.486133
@<TRIPOS>BOND
     1     1     2 ar  
     2     1     8 ar  
     3     1    29 1   
     4     2     3 ar  
     5     2    30 1   
     6     3     4 ar  
     7     3     9 1   
     8     4     5 ar  
     9     5     8 ar  
    10     5    31 1   
    11     6     9 1   
    12     6    13 1   
    13     6    32 1   
    14     7    15 ar  
    15     7    16 ar  
    16     7    28 1   
    17     8    11 1   
    18     9    10 2   
    19    11    12 3   
    20    13    14 ar  
    21    13    17 ar  
    22    14    15 ar  
    23    14    33 1   
    24    15    34 1   
    25    16    17 ar  
    26    16    18 1   
    27    17    35 1   
    28    18    19 1   
    29    18    23 1   
    30    18    24 1   
    31    19    20 1   
    32    19    36 1   
    33    19    37 1   
    34    20    21 1   
    35    20    38 1   
    36    20    39 1   
    37    21    22 1   
    38    22    23 2   
    39    22    27 1   
    40    24    25 1   
    41    24    26 1   
    42    24    40 1   
    43    27    41 1   
    44    27    42 1   
    45    27    43 1   
@<TRIPOS>SUBSTRUCTURE
     1 1HQ         1 TEMP              0 ****  ****    0 ROOT
