@<TRIPOS>MOLECULE
1HQ
   43    45     1     0     0
SMALL
bcc


@<TRIPOS>ATOM
      1 C2           0.0000     0.0000     0.0000 ca         1 1HQ      -0.047000
      2 C3           1.3840     0.0000     0.0000 ca         1 1HQ      -0.139300
      3 C4           2.0640     0.0000     1.2170 ca         1 1HQ       0.312800
      4 N5           1.4010    -0.0010     2.3680 nb         1 1HQ      -0.596000
      5 C6           0.0880    -0.0010     2.4110 ca         1 1HQ       0.420200
      6 N9           4.2120    -0.0010     2.3980 ns         1 1HQ      -0.023100
      7 C15          8.3680    -0.2900     2.4300 ca         1 1HQ       0.134900
      8 C1          -0.6650    -0.0010     1.2320 ca         1 1HQ      -0.032300
      9 C7           3.5450     0.0000     1.2260 c          1 1HQ       0.479600
     10 O8           4.1590     0.0000     0.1770 o          1 1HQ      -0.622100
     11 C10         -2.0960     0.0050     1.2850 cg         1 1HQ       0.201800
     12 N11         -3.2320     0.0220     1.3120 n1         1 1HQ      -0.325800
     13 C12          5.6080    -0.0980     2.4080 ca         1 1HQ      -0.086400
     14 C13          6.3540     0.5030     1.4040 ca         1 1HQ      -0.041000
     15 C14          7.7330     0.4050     1.4160 ca         1 1HQ      -0.095000
     16 C16          7.6260    -0.8900     3.4330 ca         1 1HQ      -0.129300
     17 C17          6.2480    -0.7960     3.4240 ca         1 1HQ      -0.105000
     18 C19          8.3210    -1.6470     4.5350 c3         1 1HQ       0.160500
     19 C20          9.1350    -2.7960     3.9290 c3         1 1HQ      -0.320400
     20 C21          9.5570    -3.7350     5.0690 c3         1 1HQ       0.282400
     21 O22          8.3690    -4.2460     5.6830 os         1 1HQ      -0.445400
     22 C23          7.3890    -3.3670     5.9630 c2         1 1HQ       0.382500
     23 N24          7.3250    -2.1820     5.4610 n2         1 1HQ      -0.473900
     24 C25          9.2600    -0.7030     5.2880 c3         1 1HQ       0.390900
     25 F26          8.5190     0.3490     5.8380 f          1 1HQ      -0.214800
     26 F27          9.9060    -1.4040     6.3110 f          1 1HQ      -0.214800
     27 N28          6.4000    -3.7570     6.8320 nz         1 1HQ       0.194400
     28 H1          -0.5420     0.0460    -0.9370 ha         1 1HQ       0.132000
     29 H2           1.9260     0.0370    -0.9370 ha         1 1HQ       0.146000
     30 H3          -0.2840    -0.0030     3.4280 h4         1 1HQ      -0.003900
     31 H4           3.7080     0.0570     3.2600 hn         1 1HQ       0.188500
     32 H5           5.8650     1.1280     0.6660 ha         1 1HQ       0.155000
     33 H6           8.3150     0.8690     0.6290 ha         1 1HQ       0.138000
     34 H7           5.6770    -1.1760     4.2630 ha         1 1HQ       0.107000
     35 H8           8.4890    -3.3790     3.2840 hc         1 1HQ       0.121200
     36 H9           9.4990    -3.4260     4.7310 hc         1 1HQ       0.121200
     37 H10         10.0920    -4.5770     4.6470 h1         1 1HQ       0.086200
     38 H11         10.2150    -3.1950     5.7400 h1         1 1HQ       0.086200
     39 H12         10.0330    -0.3490     4.6150 h2         1 1HQ       0.098700
     40 H13          5.7140    -3.0310     6.9020 hn         1 1HQ       0.230467
     41 H14          6.7970    -3.9290     7.7340 hn         1 1HQ       0.230467
     42 H283         5.9680    -4.5930     6.4920 hn         1 1HQ       0.230467
     43 F18          9.7160    -0.3890     2.4380 f          1 1HQ      -0.114900
@<TRIPOS>BOND
     1     1     2 ar  
     2     1     8 ar  
     3     1    28 1   
     4     2     3 ar  
     5     2    29 1   
     6     3     4 ar  
     7     3     9 1   
     8     4     5 ar  
     9     5     8 ar  
    10     5    30 1   
    11     6     9 1   
    12     6    13 1   
    13     6    31 1   
    14     7    15 ar  
    15     7    16 ar  
    16     7    43 1   
    17     8    11 1   
    18     9    10 2   
    19    11    12 3   
    20    13    14 ar  
    21    13    17 ar  
    22    14    15 ar  
    23    14    32 1   
    24    15    33 1   
    25    16    17 ar  
    26    16    18 1   
    27    17    34 1   
    28    18    19 1   
    29    18    23 1   
    30    18    24 1   
    31    19    20 1   
    32    19    35 1   
    33    19    36 1   
    34    20    21 1   
    35    20    37 1   
    36    20    38 1   
    37    21    22 1   
    38    22    23 2   
    39    22    27 1   
    40    24    25 1   
    41    24    26 1   
    42    24    39 1   
    43    27    40 1   
    44    27    41 1   
    45    27    42 1   
@<TRIPOS>SUBSTRUCTURE
     1 1HQ         1 TEMP              0 ****  ****    0 ROOT
