@<TRIPOS>MOLECULE
1HR
   23    24     1     0     0
SMALL
bcc


@<TRIPOS>ATOM
      1 OAA          0.3110     2.0340    -0.6600 o          1 1HR      -0.832300
      2 CAJ          0.9090     0.9590    -0.3540 c          1 1HR       0.929600
      3 OAC          0.7350     0.3250     0.7200 o          1 1HR      -0.832300
      4 CAO          1.9310     0.4320    -1.3570 cx         1 1HR      -0.177700
      5 CAI          1.6830    -0.7930    -2.1780 cx         1 1HR      -0.094400
      6 CAP          1.5760     0.5630    -2.8250 cx         1 1HR      -0.265700
      7 CAK          2.5830     1.0690    -3.7730 c          1 1HR       0.619700
      8 OAB          3.4340     0.3610    -4.3330 o          1 1HR      -0.573100
      9 CAN          2.5180     2.5310    -4.0430 ca         1 1HR      -0.164600
     10 CAH          1.8250     3.3900    -3.1830 ca         1 1HR      -0.064000
     11 CAM          1.7860     4.7620    -3.4640 ca         1 1HR       0.001400
     12 Cl2          0.9460     5.7970    -2.4130 cl         1 1HR      -0.069400
     13 CAL          2.4330     5.2680    -4.6000 ca         1 1HR       0.027400
     14 ClA          2.3970     6.9300    -4.9700 cl         1 1HR      -0.105400
     15 CAF          3.1270     4.4050    -5.4550 ca         1 1HR      -0.155000
     16 CAG          3.1700     3.0440    -5.1720 ca         1 1HR      -0.086000
     17 H2           2.9670     0.6440    -1.0350 hc         1 1HR       0.069700
     18 H3           0.7550    -1.3680    -2.0150 hc         1 1HR       0.063200
     19 H4           2.5370    -1.4380    -2.4510 hc         1 1HR       0.063200
     20 H5           0.5590     0.9560    -3.0420 hc         1 1HR       0.113700
     21 H6           1.3070     2.9880    -2.2720 ha         1 1HR       0.246000
     22 H7           3.6370     4.8030    -6.3440 ha         1 1HR       0.137000
     23 H8           3.7230     2.3550    -5.8310 ha         1 1HR       0.149000
@<TRIPOS>BOND
     1     1     2 1   
     2     2     3 1   
     3     2     4 1   
     4     4     5 1   
     5     4     6 1   
     6     4    17 1   
     7     5     6 1   
     8     5    18 1   
     9     5    19 1   
    10     6     7 1   
    11     6    20 1   
    12     7     8 2   
    13     7     9 1   
    14     9    10 ar  
    15     9    16 ar  
    16    10    11 ar  
    17    10    21 1   
    18    11    12 1   
    19    11    13 ar  
    20    13    14 1   
    21    13    15 ar  
    22    15    16 ar  
    23    15    22 1   
    24    16    23 1   
@<TRIPOS>SUBSTRUCTURE
     1 1HR         1 TEMP              0 ****  ****    0 ROOT
