@<TRIPOS>MOLECULE
1HR
   23    24     1     0     0
SMALL
bcc


@<TRIPOS>ATOM
      1 OAA         1.2890    0.3610    0.9520 o         1 1HR     -0.832800
      2 CAJ         2.3860   -0.0150    0.4620 c         1 1HR      0.929600
      3 OAC         3.4090   -0.3200    1.1470 o         1 1HR     -0.832800
      4 CAO         2.5060   -0.1520   -1.0520 cx        1 1HR     -0.178700
      5 CAI         2.3880    1.0240   -1.9700 cx        1 1HR     -0.094400
      6 CAP         3.7450    0.4290   -1.7020 cx        1 1HR     -0.262700
      7 CAK         4.4760   -0.3600   -2.7120 c         1 1HR      0.618700
      8 OAB         4.2210   -0.3480   -3.9260 o         1 1HR     -0.570100
      9 CAN         5.5830   -1.1960   -2.1730 ca        1 1HR     -0.165600
     10 CAH         6.5610   -1.6820   -3.0470 ca        1 1HR     -0.078000
     11 CAM         7.6110   -2.4640   -2.5590 ca        1 1HR     -0.013600
     12 CL2         8.7910   -3.0340   -3.6460 cl        1 1HR     -0.105400
     13 CAL         7.6760   -2.7680   -1.1910 ca        1 1HR      0.032400
     14 CLA         8.9420   -3.7200   -0.5670 cl        1 1HR     -0.102400
     15 CAF         6.6920   -2.2880   -0.3230 ca        1 1HR     -0.137000
     16 CAG         5.6470   -1.5020   -0.8070 ca        1 1HR     -0.070000
     17 H2          2.1280   -1.1290   -1.4040 hc        1 1HR      0.069700
     18 H3          2.1570    2.0140   -1.5400 hc        1 1HR      0.064700
     19 H4          1.9420    0.8830   -2.9700 hc        1 1HR      0.064700
     20 H5          4.4350    0.9830   -1.0300 hc        1 1HR      0.109700
     21 H6          6.4900   -1.4450   -4.1210 ha        1 1HR      0.160000
     22 H7          6.7350   -2.5280    0.7510 ha        1 1HR      0.156000
     23 H8          4.8630   -1.1250   -0.1020 ha        1 1HR      0.240000
@<TRIPOS>BOND
     1    1    2 1   
     2    2    3 1   
     3    2    4 1   
     4    4    5 1   
     5    4    6 1   
     6    4   17 1   
     7    5    6 1   
     8    5   18 1   
     9    5   19 1   
    10    6    7 1   
    11    6   20 1   
    12    7    8 2   
    13    7    9 1   
    14    9   10 ar  
    15    9   16 ar  
    16   10   11 ar  
    17   10   21 1   
    18   11   12 1   
    19   11   13 ar  
    20   13   14 1   
    21   13   15 ar  
    22   15   16 ar  
    23   15   22 1   
    24   16   23 1   
@<TRIPOS>SUBSTRUCTURE
     1 1HR         1 TEMP              0 ****  ****    0 ROOT
