@<TRIPOS>MOLECULE
molecule
   23    24     1     0     0
SMALL
bcc


@<TRIPOS>ATOM
      1 OAA          0.0000     0.0000     0.0000 o          1 1HR      -0.838300
      2 CAJ          1.3430     0.0000     0.0000 c          1 1HR       0.911600
      3 OAC          1.9470     0.0000     1.0460 o          1 1HR      -0.838300
      4 CAO          2.0950    -0.0010    -1.3050 cx         1 1HR      -0.144700
      5 CAI          2.8770     1.2630    -1.6710 cx         1 1HR      -0.109400
      6 CAP          3.6230    -0.0020    -1.2390 cx         1 1HR      -0.276700
      7 CAK          4.3660    -0.7680    -2.3030 c          1 1HR       0.610700
      8 OAB          3.8870    -0.8870    -3.4100 o          1 1HR      -0.549100
      9 CAN          5.6720    -1.3730    -1.9980 ca         1 1HR      -0.143600
     10 CAH          6.3640    -2.0850    -2.9830 ca         1 1HR      -0.069000
     11 CAM          7.5880    -2.6490    -2.6910 ca         1 1HR       0.009400
     12 Cl2          8.4490    -3.5330    -3.9110 cl         1 1HR      -0.106400
     13 CAL          8.1320    -2.5100    -1.4220 ca         1 1HR       0.042400
     14 ClA          9.6750    -3.2220    -1.0610 cl         1 1HR      -0.110400
     15 CAF          7.4530    -1.8060    -0.4430 ca         1 1HR      -0.135000
     16 CAG          6.2310    -1.2320    -0.7240 ca         1 1HR      -0.071000
     17 H2           1.6770    -0.5360    -2.1500 hc         1 1HR       0.080700
     18 H3           2.8460     2.0600    -0.9380 hc         1 1HR       0.070200
     19 H4           2.9230     1.4950    -2.7280 hc         1 1HR       0.070200
     20 H5           4.0340     0.0340    -0.2370 hc         1 1HR       0.108700
     21 H6           5.9120    -2.2450    -3.9550 ha         1 1HR       0.168000
     22 H7           7.8850    -1.6990     0.5450 ha         1 1HR       0.147000
     23 H8           5.7000    -0.6810     0.0440 ha         1 1HR       0.170000
@<TRIPOS>BOND
     1     3     2 1   
     2     2     4 1   
     3     2     1 1   
     4     4     6 1   
     5     4     5 1   
     6     8     7 2   
     7     7     6 1   
     8     7     9 1   
     9     6     5 1   
    10    16     9 ar  
    11    16    15 ar  
    12     9    10 ar  
    13    15    13 ar  
    14    10    11 ar  
    15    13    11 ar  
    16    13    14 1   
    17    11    12 1   
    18     4    17 1   
    19     5    18 1   
    20     5    19 1   
    21     6    20 1   
    22    10    21 1   
    23    15    22 1   
    24    16    23 1   
@<TRIPOS>SUBSTRUCTURE
     1 1HR         1 TEMP              0 ****  ****    0 ROOT
