@<TRIPOS>MOLECULE
molecule
   22    21     1     0     0
SMALL
bcc


@<TRIPOS>ATOM
      1 CAK          0.0000     0.0000     0.0000 c3         1 1HS      -0.107100
      2 CAJ          1.5310     0.0000     0.0000 c3         1 1HS       0.161100
      3 OAC          2.0060     0.0000     1.3470 oh         1 1HS      -0.597800
      4 CAI          2.0410     1.2480    -0.7220 c3         1 1HS       0.001700
      5 SAH          3.8490     1.1750    -0.8530 ss         1 1HS      -0.387200
      6 CAG          4.2580     2.7130    -1.7220 c3         1 1HS       0.065700
      7 CAF          5.7740     2.8030    -1.9130 c3         1 1HS      -0.239600
      8 SAE          6.1830     4.3410    -2.7820 s6         1 1HS       1.250800
      9 OAD          5.7180     4.2950    -4.1240 o          1 1HS      -0.702200
     10 OAL          5.9220     5.4670    -1.9550 o          1 1HS      -0.702200
     11 OAB          7.7000     4.3140    -2.9090 o          1 1HS      -0.702200
     12 H1          -0.3610     0.8820     0.5150 hc         1 1HS       0.037700
     13 H2          -0.3610    -0.8870     0.5070 hc         1 1HS       0.037700
     14 H3          -0.3610     0.0050    -1.0210 hc         1 1HS       0.037700
     15 H4           1.8920    -0.8850    -0.5100 h1         1 1HS       0.037700
     16 H5           2.4490    -0.8130     1.5240 ho         1 1HS       0.400000
     17 H6           1.6090     1.2930    -1.7150 h1         1 1HS       0.060700
     18 H7           1.7550     2.1310    -0.1630 h1         1 1HS       0.060700
     19 H8           3.9170     3.5600    -1.1380 h1         1 1HS       0.058200
     20 H9           3.7710     2.7220    -2.6900 h1         1 1HS       0.058200
     21 H10          6.1150     1.9560    -2.4960 h1         1 1HS       0.086200
     22 H11          6.2610     2.7940    -0.9450 h1         1 1HS       0.086200
@<TRIPOS>BOND
     1     3     2 1
     2     2     1 1
     3     2     4 1
     4     5     4 1
     5     5     6 1
     6     7     6 1
     7     7     8 1
     8    10     8 1
     9     8     9 1
    10     8    11 1
    11     1    12 1
    12     1    13 1
    13     1    14 1
    14     2    15 1
    15     3    16 1
    16     4    17 1
    17     4    18 1
    18     6    19 1
    19     6    20 1
    20     7    21 1
    21     7    22 1
@<TRIPOS>SUBSTRUCTURE
     1 1HS         1 TEMP              0 ****  ****    0 ROOT
