@<TRIPOS>MOLECULE
1HS
   22    21     1     0     0
SMALL
bcc


@<TRIPOS>ATOM
      1 CAK          0.2010    -0.0270     0.5220 c3         1 1HS      -0.128100
      2 CAJ          1.4870     0.0200    -0.2860 c3         1 1HS       0.154100
      3 OAC          2.6070     0.1580     0.5740 oh         1 1HS      -0.607800
      4 CAI          1.4390     1.1070    -1.3480 c3         1 1HS      -0.039300
      5 SAH          1.1090     2.6940    -0.6300 ss         1 1HS      -0.398200
      6 CAG          2.1040     3.8160    -1.6000 c3         1 1HS       0.069700
      7 CAF          3.5740     3.6990    -1.4170 c3         1 1HS      -0.294600
      8 SAE          4.4690     4.8830    -2.4320 s6         1 1HS       1.429800
      9 OAD          3.9440     6.1410    -2.0630 o          1 1HS      -0.746867
     10 OAL          5.8180     4.6860    -2.0650 o          1 1HS      -0.746867
     11 OAB          4.1680     4.5000    -3.7590 o          1 1HS      -0.746867
     12 H1          -0.6540    -0.3060    -0.1380 hc         1 1HS       0.041367
     13 H2           0.2950    -0.7810     1.3390 hc         1 1HS       0.041367
     14 H3          -0.0060     0.9720     0.9780 hc         1 1HS       0.041367
     15 H4           1.6570    -0.9770    -0.7880 h1         1 1HS       0.053700
     16 H5           2.6530     1.0920     0.8280 ho         1 1HS       0.424000
     17 H6           2.4140     1.1380    -1.8960 h1         1 1HS       0.072700
     18 H7           0.6320     0.8650    -2.0800 h1         1 1HS       0.072700
     19 H8           1.7490     4.8240    -1.2620 h1         1 1HS       0.081200
     20 H9           1.8420     3.6870    -2.6800 h1         1 1HS       0.081200
     21 H10          3.8540     3.8700    -0.3500 h1         1 1HS       0.072700
     22 H11          3.9320     2.6780    -1.6900 h1         1 1HS       0.072700
@<TRIPOS>BOND
     1     1     2 1   
     2     1    12 1   
     3     1    13 1   
     4     1    14 1   
     5     2     3 1   
     6     2     4 1   
     7     2    15 1   
     8     3    16 1   
     9     4     5 1   
    10     4    17 1   
    11     4    18 1   
    12     5     6 1   
    13     6     7 1   
    14     6    19 1   
    15     6    20 1   
    16     7     8 1   
    17     7    21 1   
    18     7    22 1   
    19     8     9 1   
    20     8    10 1   
    21     8    11 1   
@<TRIPOS>SUBSTRUCTURE
     1 1HS         1 TEMP              0 ****  ****    0 ROOT
