@<TRIPOS>MOLECULE
1HS
   22    21     1     0     0
SMALL
bcc


@<TRIPOS>ATOM
      1 CAK         0.0560   -0.0290    0.0490 c3        1 1HS     -0.091100
      2 CAJ         1.5710    0.0750   -0.0100 c3        1 1HS      0.157100
      3 OAC         2.0070    0.3890    1.3070 oh        1 1HS     -0.615800
      4 CAI         2.0050    1.1280   -1.0170 c3        1 1HS     -0.054300
      5 SAH         3.7410    0.9710   -1.3140 ss        1 1HS     -0.381200
      6 CAG         4.2120    2.6400   -1.7410 c3        1 1HS      0.078700
      7 CAF         5.6750    2.6430   -1.9980 c3        1 1HS     -0.279600
      8 SAE         6.2720    4.2770   -2.4600 s6        1 1HS      1.428800
      9 OAD         5.5320    4.6130   -3.6160 o         1 1HS     -0.746867
     10 OAL         5.9830    5.0890   -1.3410 o         1 1HS     -0.746867
     11 OAB         7.6500    4.0740   -2.6900 o         1 1HS     -0.746867
     12 H1         -0.2430   -0.7490    0.8480 hc        1 1HS      0.038367
     13 H2         -0.3340   -0.3840   -0.9330 hc        1 1HS      0.038367
     14 H3         -0.3910    0.9660    0.2840 hc        1 1HS      0.038367
     15 H4          2.0100   -0.9230   -0.3020 h1        1 1HS      0.038700
     16 H5          2.9340    0.6580    1.2310 ho        1 1HS      0.421000
     17 H6          1.7700    2.1490   -0.6290 h1        1 1HS      0.065700
     18 H7          1.4420    0.9850   -1.9700 h1        1 1HS      0.065700
     19 H8          3.9540    3.3290   -0.8990 h1        1 1HS      0.068200
     20 H9          3.6500    2.9650   -2.6510 h1        1 1HS      0.068200
     21 H10         5.9330    1.9350   -2.8220 h1        1 1HS      0.077700
     22 H11         6.2370    2.3130   -1.0910 h1        1 1HS      0.077700
@<TRIPOS>BOND
     1    1    2 1   
     2    1   12 1   
     3    1   13 1   
     4    1   14 1   
     5    2    3 1   
     6    2    4 1   
     7    2   15 1   
     8    3   16 1   
     9    4    5 1   
    10    4   17 1   
    11    4   18 1   
    12    5    6 1   
    13    6    7 1   
    14    6   19 1   
    15    6   20 1   
    16    7    8 1   
    17    7   21 1   
    18    7   22 1   
    19    8    9 1   
    20    8   10 1   
    21    8   11 1   
@<TRIPOS>SUBSTRUCTURE
     1 1HS         1 TEMP              0 ****  ****    0 ROOT
