@<TRIPOS>MOLECULE
1HU
   27    28     1     0     0
SMALL
bcc


@<TRIPOS>ATOM
      1 CAA          0.0000     0.0000     0.0000 c3         1 1HU       0.180100
      2 NAI          1.4690     0.0000     0.0000 n7         1 1HU      -0.588200
      3 CAG          1.9950     0.0000     1.3720 c3         1 1HU       0.138800
      4 CAH          3.5240     0.0010     1.3320 c3         1 1HU       0.069800
      5 CAK          4.0640     0.0000     2.7390 cc         1 1HU      -0.148400
      6 CAM          4.2800    -1.1730     3.5880 ca         1 1HU      -0.094800
      7 CAE          4.0870    -2.5460     3.4160 ca         1 1HU      -0.042000
      8 CAC          4.3960    -3.4060     4.4310 ca         1 1HU      -0.134000
      9 CAB          4.9010    -2.9280     5.6330 ca         1 1HU      -0.085000
     10 CAD          5.1000    -1.5780     5.8240 ca         1 1HU      -0.105000
     11 CAL          4.7920    -0.6840     4.8040 ca         1 1HU      -0.227200
     12 NAJ          4.8750     0.6860     4.6870 na         1 1HU       0.354600
     13 CAF          4.4420     1.0750     3.4490 cd         1 1HU      -0.269100
     14 H1          -0.3610    -0.0030    -1.0210 h1         1 1HU      -0.002967
     15 H2          -0.3610     0.8860     0.5080 h1         1 1HU      -0.002967
     16 H3          -0.3610    -0.8830     0.5130 h1         1 1HU      -0.002967
     17 H4           1.8020     0.8090    -0.4850 hn         1 1HU       0.247800
     18 H6           1.6480    -0.8850     1.8920 h1         1 1HU       0.009200
     19 H7           1.6470     0.8840     1.8920 h1         1 1HU       0.009200
     20 H8           3.8720    -0.8830     0.8110 hc         1 1HU       0.017700
     21 H9           3.8710     0.8860     0.8120 hc         1 1HU       0.017700
     22 H10          3.6930    -2.9260     2.4820 ha         1 1HU       0.104000
     23 H11          4.2460    -4.4710     4.2970 ha         1 1HU       0.102000
     24 H12          5.1410    -3.6230     6.4280 ha         1 1HU       0.099000
     25 H13          5.4950    -1.2150     6.7650 ha         1 1HU       0.098000
     26 H14          5.2090     1.3040     5.4000 hn         1 1HU       0.112700
     27 H15          4.4100     2.0980     3.0940 h4         1 1HU       0.140000
@<TRIPOS>BOND
     1     1     2 1   
     2     1    14 1   
     3     1    15 1   
     4     1    16 1   
     5     2     3 1   
     6     2    17 1   
     7     3     4 1   
     8     3    18 1   
     9     3    19 1   
    10     4     5 1   
    11     4    20 1   
    12     4    21 1   
    13     5     6 1   
    14     5    13 2   
    15     6     7 ar  
    16     6    11 ar  
    17     7     8 ar  
    18     7    22 1   
    19     8     9 ar  
    20     8    23 1   
    21     9    10 ar  
    22     9    24 1   
    23    10    11 ar  
    24    10    25 1   
    25    11    12 1   
    26    12    13 1   
    27    12    26 1   
    28    13    27 1   
@<TRIPOS>SUBSTRUCTURE
     1 1HU         1 TEMP              0 ****  ****    0 ROOT
