@<TRIPOS>MOLECULE
1HU
   28    29     1     0     0
SMALL
bcc


@<TRIPOS>ATOM
      1 CAA          0.2080     0.7440    -0.2320 c3         1 1HU       0.079100
      2 NAI          1.0440    -0.3830     0.2290 ny         1 1HU      -0.758000
      3 CAG          1.7290    -0.0940     1.5260 c3         1 1HU       0.108800
      4 CAH          2.6950    -1.2050     1.9420 c3         1 1HU      -0.017200
      5 CAK          2.2660    -2.5430     1.5210 cc         1 1HU      -0.252400
      6 CAM          0.9630    -3.1530     1.6950 ca         1 1HU      -0.117800
      7 CAE         -0.2550    -2.7320     2.2400 ca         1 1HU      -0.143000
      8 CAC         -1.3280    -3.6090     2.2480 ca         1 1HU      -0.120000
      9 CAB         -1.2140    -4.9100     1.7220 ca         1 1HU      -0.103000
     10 CAD         -0.0250    -5.3740     1.1850 ca         1 1HU      -0.115000
     11 CAL          1.0720    -4.4970     1.1750 ca         1 1HU      -0.047200
     12 NAJ          2.3810    -4.6790     0.7120 na         1 1HU      -0.167400
     13 CAF          3.0960    -3.5130     0.9430 cd         1 1HU      -0.050100
     14 H1          -0.2950     0.4610    -1.1960 hx         1 1HU       0.106033
     15 H2          -0.5710     0.9760     0.5430 hx         1 1HU       0.106033
     16 H3           0.8500     1.6510    -0.3960 hx         1 1HU       0.106033
     17 H4           1.7550    -0.6050    -0.4770 hn         1 1HU       0.463800
     18 H6           2.2870     0.8800     1.4200 hx         1 1HU       0.100700
     19 H7           0.9250     0.0350     2.3070 hx         1 1HU       0.100700
     20 H8           2.7770    -1.1620     3.0660 hc         1 1HU       0.086200
     21 H9           3.7160    -0.9840     1.5260 hc         1 1HU       0.086200
     22 H10         -0.3460    -1.7370     2.6990 ha         1 1HU       0.121000
     23 H11         -2.2880    -3.2950     2.6860 ha         1 1HU       0.148000
     24 H12         -2.0920    -5.5760     1.7520 ha         1 1HU       0.155000
     25 H13          0.0620    -6.3970     0.7900 ha         1 1HU       0.155000
     26 H14          2.7550    -5.5340     0.3840 hn         1 1HU       0.321700
     27 H15          4.1580    -3.4440     0.6830 h4         1 1HU       0.184000
     28 HAI2         0.4620    -1.2300     0.3580 hn         1 1HU       0.463800
@<TRIPOS>BOND
     1     1     2 1   
     2     1    14 1   
     3     1    15 1   
     4     1    16 1   
     5     2     3 1   
     6     2    17 1   
     7     2    28 1   
     8     3     4 1   
     9     3    18 1   
    10     3    19 1   
    11     4     5 1   
    12     4    20 1   
    13     4    21 1   
    14     5     6 1   
    15     5    13 2   
    16     6     7 ar  
    17     6    11 ar  
    18     7     8 ar  
    19     7    22 1   
    20     8     9 ar  
    21     8    23 1   
    22     9    10 ar  
    23     9    24 1   
    24    10    11 ar  
    25    10    25 1   
    26    11    12 1   
    27    12    13 1   
    28    12    26 1   
    29    13    27 1   
@<TRIPOS>SUBSTRUCTURE
     1 1HU         1 TEMP              0 ****  ****    0 ROOT
