@<TRIPOS>MOLECULE
molecule
   58    61     1     0     0
SMALL
bcc


@<TRIPOS>ATOM
      1 C11          0.0000     0.0000     0.0000 ca         1 1HV      -0.066000
      2 C12          1.3850     0.0080    -2.4160 ca         1 1HV      -0.147000
      3 C13          3.0140    -0.6900     3.3770 ca         1 1HV      -0.114000
      4 C14          1.6860     0.0160     5.2490 ca         1 1HV      -0.157600
      5 C15          0.8310     0.7100     4.3880 ca         1 1HV      -0.085500
      6 C16          2.7800    -0.6840     4.7330 ca         1 1HV      -0.085500
      7 C17          1.0630     0.6980     3.0320 ca         1 1HV      -0.114000
      8 C18          4.3400    -0.6960    -3.0380 ca         1 1HV      -0.152500
      9 C19          6.5450    -0.0010    -3.6860 ca         1 1HV      -0.153600
     10 C20          6.6840     0.6890    -2.4780 ca         1 1HV      -0.069000
     11 C21          5.3640    -0.6940    -3.9590 ca         1 1HV      -0.069000
     12 C22          5.6550     0.6890    -1.5650 ca         1 1HV      -0.152500
     13 C23          1.4380     0.0290     6.7050 c          1 1HV       0.684700
     14 C26          7.6450     0.0030    -4.6700 c          1 1HV       0.671700
     15 C29          2.0180    -0.6280     8.9790 c3         1 1HV       0.130000
     16 C30          3.0910    -1.4570     9.6860 c3         1 1HV      -0.133400
     17 N1           3.8650    -2.2410    11.8730 nz         1 1HV      -0.810600
     18 N2           3.5910    -0.0010     0.4780 nc         1 1HV      -0.483100
     19 N3           3.4370    -0.0020    -0.9120 na         1 1HV       0.148800
     20 C4           2.4140     0.0000     1.0590 cd         1 1HV       0.406500
     21 C5           2.1590     0.0030     2.5160 ca         1 1HV      -0.046900
     22 C6           4.4780    -0.0030    -1.8400 ca         1 1HV       0.058800
     23 C7           2.0970    -0.0010    -1.2190 ca         1 1HV      -0.012200
     24 C8           1.3970     0.0000     0.0000 ca         1 1HV      -0.232900
     25 C9          -0.6780    -0.0010    -1.1850 ca         1 1HV      -0.154000
     26 C10          0.0090     0.0040    -2.3930 ca         1 1HV      -0.080000
     27 N24          2.2630    -0.6410     7.5350 ns         1 1HV      -0.599900
     28 O25          0.4900     0.6420     7.1550 o          1 1HV      -0.591100
     29 O27          7.5240    -0.5970    -5.7200 o          1 1HV      -0.601100
     30 N28          8.7850     0.6730    -4.4060 ns         1 1HV      -0.585900
     31 C31          2.8340    -1.4450    11.1940 c3         1 1HV       0.095800
     32 C32          9.8760     0.6780    -5.3830 c3         1 1HV       0.103300
     33 H1          -0.5440    -0.0040     0.9370 ha         1 1HV       0.133000
     34 H2           1.9130     0.0120    -3.3620 ha         1 1HV       0.145000
     35 H3           3.8630    -1.2310     2.9760 ha         1 1HV       0.154500
     36 H4          -0.0180     1.2510     4.7880 ha         1 1HV       0.138500
     37 H5           3.4430    -1.2220     5.3990 ha         1 1HV       0.138500
     38 H6           0.4000     1.2350     2.3650 ha         1 1HV       0.154500
     39 H7           3.4240    -1.2340    -3.2490 ha         1 1HV       0.151000
     40 H8           7.5990     1.2280    -2.2640 ha         1 1HV       0.150000
     41 H9           5.2540    -1.2320    -4.8930 ha         1 1HV       0.150000
     42 H10          5.7600     1.2260    -0.6300 ha         1 1HV       0.151000
     43 H11          2.0510     0.3920     9.3420 h1         1 1HV       0.066200
     44 H12          1.0420    -1.0520     9.1830 h1         1 1HV       0.066200
     45 H13          4.0670    -1.0330     9.4830 hc         1 1HV       0.068700
     46 H14          3.0580    -2.4770     9.3220 hc         1 1HV       0.068700
     47 H15          3.6970    -2.2340    12.8600 hn         1 1HV       0.458800
     48 H16          3.8350    -3.1840    11.5370 hn         1 1HV       0.458800
     49 H18         -1.7610    -0.0050    -1.1840 ha         1 1HV       0.139000
     50 H19         -0.5440     0.0030    -3.3240 ha         1 1HV       0.143000
     51 H20          3.0420    -1.1480     7.1640 hn         1 1HV       0.319500
     52 H21          8.8850     1.1680    -3.5420 hn         1 1HV       0.311500
     53 H22          2.8670    -0.4250    11.5580 hx         1 1HV       0.117700
     54 H23          1.8580    -1.8690    11.3980 hx         1 1HV       0.117700
     55 H24          9.5280     1.1130    -6.3120 h1         1 1HV       0.044700
     56 H25         10.2050    -0.3390    -5.5610 h1         1 1HV       0.044700
     57 H26         10.7030     1.2630    -4.9980 h1         1 1HV       0.044700
     58 H131         4.7660    -1.8460    11.6900 hn         1 1HV       0.458800
@<TRIPOS>BOND
     1    32    30 1   
     2    30    14 1   
     3    10    12 ar  
     4    10     9 ar  
     5    14     9 1   
     6    14    29 2   
     7    12    22 ar  
     8    28    13 2   
     9     9    11 ar  
    10     6     3 ar  
    11     6     4 ar  
    12     3    21 ar  
    13    13     4 1   
    14    13    27 1   
    15     4     5 ar  
    16    15    27 1   
    17    15    16 1   
    18    22    19 1   
    19    22     8 ar  
    20    18    19 1   
    21    18    20 2   
    22    11     8 ar  
    23    19    23 1   
    24    21    20 1   
    25    21     7 ar  
    26    31    16 1   
    27    31    17 1   
    28    20    24 1   
    29     5     7 ar  
    30    23    24 ar  
    31    23     2 ar  
    32    24     1 ar  
    33     2    26 ar  
    34     1    25 ar  
    35    26    25 ar  
    36     1    33 1   
    37     2    34 1   
    38     3    35 1   
    39     5    36 1   
    40     6    37 1   
    41     7    38 1   
    42     8    39 1   
    43    10    40 1   
    44    11    41 1   
    45    12    42 1   
    46    15    43 1   
    47    15    44 1   
    48    16    45 1   
    49    16    46 1   
    50    17    47 1   
    51    17    48 1   
    52    25    49 1   
    53    26    50 1   
    54    27    51 1   
    55    30    52 1   
    56    31    53 1   
    57    31    54 1   
    58    32    55 1   
    59    32    56 1   
    60    32    57 1   
    61    58    17 1   
@<TRIPOS>SUBSTRUCTURE
     1 1HV         1 TEMP              0 ****  ****    0 ROOT
