@<TRIPOS>MOLECULE
1HV
   60    63     1     0     0
SMALL
bcc


@<TRIPOS>ATOM
      1 C11          0.1460    -0.3410     0.0760 ca         1 1HV      -0.078000
      2 C12          1.6340    -0.2410    -2.3630 ca         1 1HV      -0.126000
      3 C13          3.1750    -1.3070     3.4060 ca         1 1HV      -0.116000
      4 C14          1.8460    -0.6950     5.3470 ca         1 1HV      -0.226600
      5 C15          1.0100     0.0790     4.5190 ca         1 1HV      -0.052000
      6 C16          2.9360    -1.3840     4.7740 ca         1 1HV      -0.052000
      7 C17          1.2540     0.1520     3.1570 ca         1 1HV      -0.116000
      8 C18          4.6670     0.6130    -2.7610 ca         1 1HV      -0.139000
      9 C19          6.9200    -0.0020    -3.4240 ca         1 1HV      -0.215600
     10 C20          7.0240    -0.8290    -2.2960 ca         1 1HV      -0.045000
     11 C21          5.7370     0.7270    -3.6400 ca         1 1HV      -0.045000
     12 C22          5.9630    -0.9480    -1.4080 ca         1 1HV      -0.139000
     13 C23          1.6870    -0.8430     6.7810 c          1 1HV       0.590700
     14 C26          7.9970     0.1990    -4.3950 c          1 1HV       0.565700
     15 C29          0.3200    -0.4470     8.8630 c3         1 1HV       0.103800
     16 C30         -0.8980     0.2010     9.5220 c3         1 1HV      -0.133400
     17 N1          -2.0160     0.4080    11.7770 nz         1 1HV      -0.837600
     18 N2           3.8010    -0.4850     0.5780 nc         1 1HV      -0.463100
     19 N3           3.6580    -0.3820    -0.7580 na         1 1HV       0.157800
     20 C4           2.5660    -0.4650     1.1470 cd         1 1HV       0.361500
     21 C5           2.3360    -0.5460     2.5780 ca         1 1HV       0.027100
     22 C6           4.7580    -0.2390    -1.6390 ca         1 1HV       0.108800
     23 C7           2.2840    -0.2970    -1.1240 ca         1 1HV      -0.042200
     24 C8           1.5390    -0.3520     0.1090 ca         1 1HV      -0.188900
     25 C9          -0.4890    -0.2650    -1.1570 ca         1 1HV      -0.118000
     26 C10          0.2450    -0.2180    -2.3560 ca         1 1HV      -0.073000
     27 N24          0.4350    -0.1750     7.4060 ny         1 1HV      -0.688800
     28 O25          2.3920    -1.4250     7.5910 o          1 1HV      -0.424100
     29 O27          8.1420     1.1320    -5.1700 o          1 1HV      -0.399100
     30 N28          9.0540    -0.8950    -4.4700 ny         1 1HV      -0.671800
     31 C31         -0.8760    -0.1640    11.0070 c3         1 1HV       0.102800
     32 C32          9.8520    -0.8450    -5.7180 c3         1 1HV       0.080100
     33 H1          -0.4400    -0.4080     1.0030 ha         1 1HV       0.137000
     34 H2           2.1920    -0.2360    -3.3100 ha         1 1HV       0.155000
     35 H3           4.0330    -1.8540     2.9750 ha         1 1HV       0.181500
     36 H4           0.1600     0.6490     4.9210 ha         1 1HV       0.149500
     37 H5           3.6030    -1.9890     5.4160 ha         1 1HV       0.149500
     38 H6           0.6060     0.7730     2.5140 ha         1 1HV       0.181500
     39 H7           3.7580     1.2130    -2.9440 ha         1 1HV       0.180000
     40 H8           7.9470    -1.3880    -2.0720 ha         1 1HV       0.160000
     41 H9           5.6610     1.4060    -4.5090 ha         1 1HV       0.160000
     42 H10          6.0710    -1.5980    -0.5230 ha         1 1HV       0.180000
     43 H11          1.2700    -0.0770     9.3540 hx         1 1HV       0.129700
     44 H12          0.2830    -1.5690     8.9970 hx         1 1HV       0.129700
     45 H13         -1.8450    -0.1710     9.0440 hc         1 1HV       0.089200
     46 H14         -0.8620     1.3180     9.3950 hc         1 1HV       0.089200
     47 H15         -2.9130     0.0690    11.4090 hn         1 1HV       0.478800
     48 H16         -2.0100     1.4350    11.7310 hn         1 1HV       0.478800
     49 H18         -1.5900    -0.2520    -1.2060 ha         1 1HV       0.161000
     50 H19         -0.2980    -0.1710    -3.3150 ha         1 1HV       0.166000
     51 H20          0.4990     0.8350     7.2400 hn         1 1HV       0.458800
     52 H21          8.5850    -1.8050    -4.3970 hn         1 1HV       0.460300
     53 H22         -0.9130    -1.2880    11.1270 hx         1 1HV       0.130700
     54 H23          0.0800     0.2140    11.4820 hx         1 1HV       0.130700
     55 H24         10.6250    -1.6600    -5.6920 hx         1 1HV       0.118700
     56 H25         10.3550     0.1580    -5.8040 hx         1 1HV       0.118700
     57 H26          9.1730    -0.9870    -6.6020 hx         1 1HV       0.118700
     58 H131        -1.9380     0.1240    12.7650 hn         1 1HV       0.478800
     59 H242        -0.3920    -0.5290     6.9130 hn         1 1HV       0.458800
     60 H282         9.6800    -0.7890    -3.6630 hn         1 1HV       0.460300
@<TRIPOS>BOND
     1     1    24 ar  
     2     1    25 ar  
     3     1    33 1   
     4     2    23 ar  
     5     2    26 ar  
     6     2    34 1   
     7     3     6 ar  
     8     3    21 ar  
     9     3    35 1   
    10     4     5 ar  
    11     4     6 ar  
    12     4    13 1   
    13     5     7 ar  
    14     5    36 1   
    15     6    37 1   
    16     7    21 ar  
    17     7    38 1   
    18     8    11 ar  
    19     8    22 ar  
    20     8    39 1   
    21     9    10 ar  
    22     9    11 ar  
    23     9    14 1   
    24    10    12 ar  
    25    10    40 1   
    26    11    41 1   
    27    12    22 ar  
    28    12    42 1   
    29    13    27 1   
    30    13    28 2   
    31    14    29 2   
    32    14    30 1   
    33    15    16 1   
    34    15    27 1   
    35    15    43 1   
    36    15    44 1   
    37    16    31 1   
    38    16    45 1   
    39    16    46 1   
    40    17    31 1   
    41    17    47 1   
    42    17    48 1   
    43    17    58 1   
    44    18    19 1   
    45    18    20 2   
    46    19    22 1   
    47    19    23 1   
    48    20    21 1   
    49    20    24 1   
    50    23    24 ar  
    51    25    26 ar  
    52    25    49 1   
    53    26    50 1   
    54    27    51 1   
    55    27    59 1   
    56    30    32 1   
    57    30    52 1   
    58    30    60 1   
    59    31    53 1   
    60    31    54 1   
    61    32    55 1   
    62    32    56 1   
    63    32    57 1   
@<TRIPOS>SUBSTRUCTURE
     1 1HV         1 TEMP              0 ****  ****    0 ROOT
