@<TRIPOS>MOLECULE
1HV
   58    61     1     0     0
SMALL
bcc


@<TRIPOS>ATOM
      1 C11          0.0000     0.0000     0.0000 ca         1 1HV      -0.033000
      2 C12          1.3850     0.0080    -2.4160 ca         1 1HV      -0.114000
      3 C13          3.0140    -0.6900     3.3770 ca         1 1HV      -0.094000
      4 C14          1.6860     0.0160     5.2490 ca         1 1HV      -0.176600
      5 C15          0.8310     0.7100     4.3880 ca         1 1HV      -0.056500
      6 C16          2.7800    -0.6840     4.7330 ca         1 1HV      -0.056500
      7 C17          1.0630     0.6980     3.0320 ca         1 1HV      -0.094000
      8 C18          4.3400    -0.6960    -3.0380 ca         1 1HV      -0.120500
      9 C19          6.5450    -0.0010    -3.6860 ca         1 1HV      -0.153600
     10 C20          6.6840     0.6890    -2.4780 ca         1 1HV      -0.042000
     11 C21          5.3640    -0.6940    -3.9590 ca         1 1HV      -0.042000
     12 C22          5.6550     0.6890    -1.5650 ca         1 1HV      -0.120500
     13 C23          1.4380     0.0290     6.7050 c          1 1HV       0.614700
     14 C26          7.6450     0.0030    -4.6700 c          1 1HV       0.590700
     15 C29          2.0180    -0.6280     8.9790 c3         1 1HV       0.072000
     16 C30          3.0910    -1.4570     9.6860 c3         1 1HV      -0.051400
     17 N1           3.8650    -2.2410    11.8730 nz         1 1HV       0.086400
     18 N2           3.5910    -0.0010     0.4780 nc         1 1HV      -0.622100
     19 N3           3.4370    -0.0020    -0.9120 na         1 1HV       0.606800
     20 C4           2.4140     0.0000     1.0590 cd         1 1HV       0.429500
     21 C5           2.1590     0.0030     2.5160 ca         1 1HV      -0.043900
     22 C6           4.4780    -0.0030    -1.8400 ca         1 1HV      -0.117200
     23 C7           2.0970    -0.0010    -1.2190 ca         1 1HV      -0.181200
     24 C8           1.3970     0.0000     0.0000 ca         1 1HV      -0.238900
     25 C9          -0.6780    -0.0010    -1.1850 ca         1 1HV      -0.127000
     26 C10          0.0090     0.0040    -2.3930 ca         1 1HV      -0.051000
     27 N24          2.2630    -0.6410     7.5350 ns         1 1HV      -0.230900
     28 O25          0.4900     0.6420     7.1550 o          1 1HV      -0.630100
     29 O27          7.5240    -0.5970    -5.7200 o          1 1HV      -0.640100
     30 N28          8.7850     0.6730    -4.4060 ns         1 1HV      -0.196900
     31 C31          2.8340    -1.4450    11.1940 c3         1 1HV      -0.046200
     32 C32          9.8760     0.6780    -5.3830 c3         1 1HV       0.087300
     33 H1          -0.5440    -0.0040     0.9370 ha         1 1HV       0.106000
     34 H2           1.9130     0.0120    -3.3620 ha         1 1HV       0.121000
     35 H3           3.8630    -1.2310     2.9760 ha         1 1HV       0.124500
     36 H4          -0.0180     1.2510     4.7880 ha         1 1HV       0.109500
     37 H5           3.4430    -1.2220     5.3990 ha         1 1HV       0.109500
     38 H6           0.4000     1.2350     2.3650 ha         1 1HV       0.124500
     39 H7           3.4240    -1.2340    -3.2490 ha         1 1HV       0.125000
     40 H8           7.5990     1.2280    -2.2640 ha         1 1HV       0.120000
     41 H9           5.2540    -1.2320    -4.8930 ha         1 1HV       0.120000
     42 H10          5.7600     1.2260    -0.6300 ha         1 1HV       0.125000
     43 H11          2.0510     0.3920     9.3420 h1         1 1HV       0.035200
     44 H12          1.0420    -1.0520     9.1830 h1         1 1HV       0.035200
     45 H13          4.0670    -1.0330     9.4830 hc         1 1HV       0.035200
     46 H14          3.0580    -2.4770     9.3220 hc         1 1HV       0.035200
     47 H15          3.6970    -2.2340    12.8600 hn         1 1HV       0.224467
     48 H16          3.8350    -3.1840    11.5370 hn         1 1HV       0.224467
     49 H18         -1.7610    -0.0050    -1.1840 ha         1 1HV       0.110000
     50 H19         -0.5440     0.0030    -3.3240 ha         1 1HV       0.109000
     51 H20          3.0420    -1.1480     7.1640 hn         1 1HV       0.186500
     52 H21          8.8850     1.1680    -3.5420 hn         1 1HV       0.173500
     53 H22          2.8670    -0.4250    11.5580 hx         1 1HV       0.089700
     54 H23          1.8580    -1.8690    11.3980 hx         1 1HV       0.089700
     55 H24          9.5280     1.1130    -6.3120 h1         1 1HV       0.011367
     56 H25         10.2050    -0.3390    -5.5610 h1         1 1HV       0.011367
     57 H26         10.7030     1.2630    -4.9980 h1         1 1HV       0.011367
     58 H131         4.7660    -1.8460    11.6900 hn         1 1HV       0.224467
@<TRIPOS>BOND
     1     1    24 ar  
     2     1    25 ar  
     3     1    33 1   
     4     2    23 ar  
     5     2    26 ar  
     6     2    34 1   
     7     3     6 ar  
     8     3    21 ar  
     9     3    35 1   
    10     4     5 ar  
    11     4     6 ar  
    12     4    13 1   
    13     5     7 ar  
    14     5    36 1   
    15     6    37 1   
    16     7    21 ar  
    17     7    38 1   
    18     8    11 ar  
    19     8    22 ar  
    20     8    39 1   
    21     9    10 ar  
    22     9    11 ar  
    23     9    14 1   
    24    10    12 ar  
    25    10    40 1   
    26    11    41 1   
    27    12    22 ar  
    28    12    42 1   
    29    13    27 1   
    30    13    28 2   
    31    14    29 2   
    32    14    30 1   
    33    15    16 1   
    34    15    27 1   
    35    15    43 1   
    36    15    44 1   
    37    16    31 1   
    38    16    45 1   
    39    16    46 1   
    40    17    31 1   
    41    17    47 1   
    42    17    48 1   
    43    17    58 1   
    44    18    19 1   
    45    18    20 2   
    46    19    22 1   
    47    19    23 1   
    48    20    21 1   
    49    20    24 1   
    50    23    24 ar  
    51    25    26 ar  
    52    25    49 1   
    53    26    50 1   
    54    27    51 1   
    55    30    32 1   
    56    30    52 1   
    57    31    53 1   
    58    31    54 1   
    59    32    55 1   
    60    32    56 1   
    61    32    57 1   
@<TRIPOS>SUBSTRUCTURE
     1 1HV         1 TEMP              0 ****  ****    0 ROOT
