@<TRIPOS>MOLECULE
molecule
   49    52     1     0     0
SMALL
bcc


@<TRIPOS>ATOM
      1 C1           0.0000     0.0000     0.0000 ca         1 1HW      -0.134000
      2 C2           1.3850     0.0000     0.0000 ca         1 1HW      -0.025300
      3 C3           2.0550     0.0000     1.2310 ca         1 1HW      -0.102900
      4 C4           1.3520    -0.0200     2.4280 ca         1 1HW      -0.102000
      5 C5          -0.0340    -0.0270     2.4060 ca         1 1HW       0.086100
      6 C10          3.5300     0.0410     1.1950 ce         1 1HW       0.425900
      7 C11          5.6990     0.0900     0.1680 c3         1 1HW       0.113000
      8 C6          -0.7020    -0.0130     1.1890 ca         1 1HW      -0.117000
      9 C7           2.1180    -0.0180    -1.3110 c3         1 1HW      -0.188100
     10 C9           4.2600    -0.3570    -0.0870 c3         1 1HW       0.001000
     11 F31          7.9460     5.0580    -0.0690 f          1 1HW      -0.218967
     12 C28          8.3080     4.9560    -1.3800 c3         1 1HW       0.817700
     13 F29          9.3300     4.0580    -1.5010 f          1 1HW      -0.218967
     14 F30          8.7960     6.2240    -1.5190 f          1 1HW      -0.218967
     15 C17          6.6590     3.5110    -2.2070 ca         1 1HW       0.012100
     16 C16          7.3000     2.3010    -2.4400 ca         1 1HW       0.162900
     17 F26          8.6200     2.2850    -2.7940 f          1 1HW      -0.115900
     18 C15          6.7730     1.1270    -1.9260 ca         1 1HW      -0.182000
     19 C18          5.4930     3.5450    -1.4610 ca         1 1HW      -0.058000
     20 C19          5.9200     2.5520    -0.0980 ca         1 1HW      -0.088000
     21 C14          6.0380     1.2950    -0.6700 ca         1 1HW      -0.054300
     22 C8           3.5740     0.4300    -1.2030 c3         1 1HW      -0.324400
     23 N12          5.6980     0.4370     1.6030 n          1 1HW      -0.305800
     24 C20          6.8600     0.6860     2.4360 c          1 1HW       0.734100
     25 O23          7.9460     0.6180     1.9720 o          1 1HW      -0.511100
     26 C21          6.6840     0.9330     3.9310 c3         1 1HW       0.089400
     27 O22          6.8930    -0.2620     4.6300 oh         1 1HW      -0.591800
     28 N13          4.3850     0.3860     2.0750 n2         1 1HW      -0.421300
     29 O24         -0.7490    -0.1380     3.6030 os         1 1HW      -0.343900
     30 C25         -0.8800    -1.4520     4.0650 c3         1 1HW       0.130700
     31 H1          -0.5420    -0.0000    -0.9380 ha         1 1HW       0.137000
     32 H2           1.8880    -0.0200     3.3700 ha         1 1HW       0.156000
     33 H4           6.3890    -0.7230    -0.0250 h1         1 1HW       0.087700
     34 H5          -1.7850    -0.0130     1.1780 ha         1 1HW       0.144000
     35 H6           2.3670     1.0040    -1.5680 hc         1 1HW       0.129200
     36 H7           1.4440    -0.4060    -2.0640 hc         1 1HW       0.129200
     37 H8           4.1990    -1.4250    -0.2580 hc         1 1HW       0.012700
     38 H9           7.2730     0.1830    -2.1080 ha         1 1HW       0.156000
     39 H10          4.9930     4.4890    -1.2800 ha         1 1HW       0.153000
     40 H11          5.1990     2.3760     0.6910 ha         1 1HW       0.157000
     41 H12          4.1220    -0.3040    -0.6250 hc         1 1HW       0.105700
     42 H13          3.9960     0.4840    -2.1990 hc         1 1HW       0.105700
     43 H14          5.6800     1.2920     4.1230 h1         1 1HW       0.052700
     44 H15          7.4020     1.6740     4.2610 h1         1 1HW       0.052700
     45 H16          6.9620    -0.0790     5.5520 ho         1 1HW       0.420000
     46 H18         -0.0080    -1.7170     4.6510 h1         1 1HW       0.033367
     47 H19         -0.9660    -2.1250     3.2210 h1         1 1HW       0.033367
     48 H20         -1.7670    -1.5310     4.6820 h1         1 1HW       0.033367
     49 O27          7.3540     4.7130    -2.3720 os         1 1HW      -0.346900
@<TRIPOS>BOND
     1     1     8 ar
     2     1     2 ar
     3     8     5 ar
     4     9     2 1
     5     9    22 1
     6     2     3 ar
     7     5    29 1
     8     5     4 ar
     9    29    30 1
    10     3     4 ar
    11     3     6 1
    12    22    10 1
    13    10     6 1
    14    10     7 1
    15     6    28 2
    16    28    23 1
    17     7    23 1
    18     7    21 1
    19    23    24 1
    20    18    21 ar
    21    18    16 ar
    22    21    20 ar
    23    17    16 1
    24    16    15 ar
    25    20    19 ar
    26    24    26 1
    27    24    25 2
    28    15    19 ar
    29    15    49 1
    30    26    27 1
    31    49    12 1
    32    11    12 1
    33    12    13 1
    34    12    14 1
    35     1    31 1
    36     4    32 1
    37     7    33 1
    38     8    34 1
    39     9    35 1
    40     9    36 1
    41    10    37 1
    42    18    38 1
    43    19    39 1
    44    20    40 1
    45    22    41 1
    46    22    42 1
    47    26    43 1
    48    26    44 1
    49    27    45 1
    50    30    46 1
    51    30    47 1
    52    30    48 1
@<TRIPOS>SUBSTRUCTURE
     1 1HW         1 TEMP              0 ****  ****    0 ROOT
