@<TRIPOS>MOLECULE
1HW
   49    52     1     0     0
SMALL
bcc


@<TRIPOS>ATOM
      1 C1          -0.2810    -0.1720     0.2690 ca         1 1HW      -0.107000
      2 C2           1.1070     0.0250     0.2430 ca         1 1HW      -0.085300
      3 C3           1.8160     0.0250     1.4580 ca         1 1HW      -0.083900
      4 C4           1.1480    -0.1690     2.6740 ca         1 1HW      -0.166000
      5 C5          -0.2350    -0.3670     2.6710 ca         1 1HW       0.117100
      6 C10          3.2520     0.2500     1.4190 ce         1 1HW       0.382900
      7 C11          5.3780     0.6810     0.4250 c3         1 1HW       0.118000
      8 C6          -0.9590    -0.3680     1.4640 ca         1 1HW      -0.134000
      9 C7           1.7780     0.1990    -1.0760 c3         1 1HW      -0.034100
     10 C9           3.9680     0.1090     0.0720 c3         1 1HW      -0.142000
     11 F31          8.3110     6.2290    -1.3770 f          1 1HW      -0.213300
     12 C28          7.9760     5.8480    -2.6340 c3         1 1HW       0.819700
     13 F29          8.9450     5.0340    -3.1240 f          1 1HW      -0.213300
     14 F30          7.8680     6.9410    -3.4270 f          1 1HW      -0.213300
     15 C17          6.4820     4.1410    -1.8690 ca         1 1HW       0.048100
     16 C16          5.5690     4.2930    -0.8000 ca         1 1HW       0.144900
     17 F26          5.0440     5.5010    -0.5070 f          1 1HW      -0.116900
     18 C15          5.2020     3.1600    -0.0480 ca         1 1HW      -0.141000
     19 C18          7.0280     2.8880    -2.1670 ca         1 1HW      -0.107000
     20 C19          6.6620     1.7820    -1.4060 ca         1 1HW      -0.121000
     21 C14          5.7450     1.9120    -0.3530 ca         1 1HW      -0.047300
     22 C8           3.1660     0.8080    -0.9960 c3         1 1HW      -0.066400
     23 N12          5.2830     0.9170     1.9030 n          1 1HW      -0.243800
     24 C20          6.4340     0.8450     2.7090 c          1 1HW       0.645100
     25 O23          7.5540     0.7320     2.1810 o          1 1HW      -0.583100
     26 C21          6.2830     0.9450     4.2200 c3         1 1HW       0.082400
     27 O22          7.5040     1.2960     4.8260 oh         1 1HW      -0.585800
     28 N13          4.0400     0.6660     2.3950 n2         1 1HW      -0.433300
     29 O24         -0.9980    -0.5740     3.8040 os         1 1HW      -0.324900
     30 C25         -0.3040    -0.5340     5.0460 c3         1 1HW       0.111700
     31 H1          -0.8440    -0.1690    -0.6780 ha         1 1HW       0.139000
     32 H2           1.7170    -0.1620     3.6160 ha         1 1HW       0.153000
     33 H4           6.1680    -0.1060     0.2470 h1         1 1HW       0.087700
     34 H5          -2.0470    -0.5220     1.4850 ha         1 1HW       0.154000
     35 H6           1.8470    -0.8110    -1.5680 hc         1 1HW       0.057200
     36 H7           1.1390     0.8450    -1.7370 hc         1 1HW       0.057200
     37 H8           4.0700    -0.9790    -0.1840 hc         1 1HW       0.082700
     38 H9           4.4900     3.2860     0.7830 ha         1 1HW       0.167000
     39 H10          7.7490     2.7950    -2.9940 ha         1 1HW       0.161000
     40 H11          7.1070     0.8010    -1.6320 ha         1 1HW       0.148000
     41 H12          3.6780     0.7090    -1.9890 hc         1 1HW       0.059700
     42 H13          3.0880     1.9040    -0.7640 hc         1 1HW       0.059700
     43 H14          5.9250    -0.0490     4.6060 h1         1 1HW       0.080200
     44 H15          5.5630     1.7550     4.5140 h1         1 1HW       0.080200
     45 H16          8.2140     0.8030     4.3890 ho         1 1HW       0.423000
     46 H18         -1.1150    -0.7010     5.8000 h1         1 1HW       0.047367
     47 H19          0.4570    -1.3500     5.0990 h1         1 1HW       0.047367
     48 H20          0.1770     0.4630     5.1980 h1         1 1HW       0.047367
     49 O27          6.7120     5.2350    -2.6960 os         1 1HW      -0.358900
@<TRIPOS>BOND
     1     1     2 ar  
     2     1     8 ar  
     3     1    31 1   
     4     2     3 ar  
     5     2     9 1   
     6     3     4 ar  
     7     3     6 1   
     8     4     5 ar  
     9     4    32 1   
    10     5     8 ar  
    11     5    29 1   
    12     6    10 1   
    13     6    28 2   
    14     7    10 1   
    15     7    21 1   
    16     7    23 1   
    17     7    33 1   
    18     8    34 1   
    19     9    22 1   
    20     9    35 1   
    21     9    36 1   
    22    10    22 1   
    23    10    37 1   
    24    11    12 1   
    25    12    13 1   
    26    12    14 1   
    27    12    49 1   
    28    15    16 ar  
    29    15    19 ar  
    30    15    49 1   
    31    16    17 1   
    32    16    18 ar  
    33    18    21 ar  
    34    18    38 1   
    35    19    20 ar  
    36    19    39 1   
    37    20    21 ar  
    38    20    40 1   
    39    22    41 1   
    40    22    42 1   
    41    23    24 1   
    42    23    28 1   
    43    24    25 2   
    44    24    26 1   
    45    26    27 1   
    46    26    43 1   
    47    26    44 1   
    48    27    45 1   
    49    29    30 1   
    50    30    46 1   
    51    30    47 1   
    52    30    48 1   
@<TRIPOS>SUBSTRUCTURE
     1 1HW         1 TEMP              0 ****  ****    0 ROOT
