@<TRIPOS>MOLECULE
molecule
   34    35     1     0     0
SMALL
bcc


@<TRIPOS>ATOM
      1 C4           0.0000     0.0000     0.0000 ca         1 1HX      -0.132300
      2 C6           0.0010    -0.0010     2.3960 ca         1 1HX      -0.139000
      3 C1           1.3820     0.0000     2.3960 ca         1 1HX      -0.090000
      4 C3           1.3840     0.0000     0.0000 ca         1 1HX       0.171900
      5 C2           2.0750     0.0000     1.2000 ca         1 1HX      -0.173000
      6 C5          -0.6910    -0.0000     1.1970 ca         1 1HX       0.056400
      7 C7          -0.7540     0.0070    -1.3060 c3         1 1HX       0.102000
      8 Cl2         -2.4280     0.0010     1.1970 cl         1 1HX      -0.091400
      9 F20          2.0610     0.0000    -1.1690 f          1 1HX      -0.116900
     10 C10         -0.6910    -1.3850    -1.9380 c3         1 1HX      -0.081100
     11 N8          -0.1480     0.9830    -2.2140 ns         1 1HX      -0.440900
     12 O11         -2.0750     1.3000    -3.2720 o          1 1HX      -0.632100
     13 C12         -0.2500     2.4310    -4.1780 cc         1 1HX      -0.180900
     14 C16          1.0580     2.8710    -4.1440 cc         1 1HX      -0.145000
     15 C15          1.2500     3.6940    -5.2530 cc         1 1HX      -0.160000
     16 C14          0.0570     3.7440    -5.9460 cd         1 1HX      -0.038300
     17 C18         -0.1830     4.4800    -7.1510 ch         1 1HX       0.262800
     18 N19         -0.3550     5.0650    -8.1090 n1         1 1HX      -0.349800
     19 N13         -0.8520     2.9660    -5.2860 na         1 1HX       0.014900
     20 C17         -2.2410     2.7420    -5.6950 c3         1 1HX       0.025600
     21 H1          -0.5410    -0.0010     3.3340 ha         1 1HX       0.150000
     22 H2           1.9240    -0.0000     3.3350 ha         1 1HX       0.145000
     23 H3           3.1590     0.0000     1.2020 ha         1 1HX       0.151000
     24 H4          -1.7870     0.2760    -1.1250 h1         1 1HX       0.076700
     25 H5          -1.6380    -1.6080    -2.4140 hc         1 1HX       0.053367
     26 H6           0.1000    -1.4110    -2.6780 hc         1 1HX       0.053367
     27 H7          -0.4910    -2.1220    -1.1700 hc         1 1HX       0.053367
     28 H8          -0.4100     1.9470    -2.1600 hn         1 1HX       0.278500
     29 H9           1.7940     2.6220    -3.3900 ha         1 1HX       0.172000
     30 H10          2.1710     4.2000    -5.5180 ha         1 1HX       0.164000
     31 H11         -2.3650     3.0390    -6.7300 h1         1 1HX       0.068033
     32 H12         -2.9010     3.3310    -5.0690 h1         1 1HX       0.068033
     33 H13         -2.4850     1.6920    -5.5890 h1         1 1HX       0.068033
     34 C9          -0.8850     1.5380    -3.1960 c          1 1HX       0.637700
@<TRIPOS>BOND
     1    10     7 1   
     2     7    11 1   
     3     7     1 1   
     4     8     6 1   
     5    11    34 1   
     6    14    15 1   
     7    14    13 2   
     8     1     6 ar  
     9     1     4 ar  
    10     6     2 ar  
    11    34    13 1   
    12    34    12 2   
    13    15    16 2   
    14     9     4 1   
    15    13    19 1   
    16     4     5 ar  
    17     2     3 ar  
    18    16    19 1   
    19    16    17 1   
    20     5     3 ar  
    21    19    20 1   
    22    17    18 3   
    23     2    21 1   
    24     3    22 1   
    25     5    23 1   
    26     7    24 1   
    27    10    25 1   
    28    10    26 1   
    29    10    27 1   
    30    11    28 1   
    31    14    29 1   
    32    15    30 1   
    33    20    31 1   
    34    20    32 1   
    35    20    33 1   
@<TRIPOS>SUBSTRUCTURE
     1 1HX         1 TEMP              0 ****  ****    0 ROOT
