@<TRIPOS>MOLECULE
1HX
   34    36     1     0     0
SMALL
bcc


@<TRIPOS>ATOM
      1 C4           0.0000     0.0000     0.0000 ca         1 1HX      -0.132000
      2 C6           0.0010    -0.0010     2.3960 ca         1 1HX      -0.113000
      3 C1           1.3820     0.0000     2.3960 ca         1 1HX      -0.059000
      4 C3           1.3840     0.0000     0.0000 ca         1 1HX       0.113000
      5 C2           2.0750     0.0000     1.2000 ca         1 1HX      -0.137000
      6 C5          -0.6910    -0.0000     1.1970 ca         1 1HX      -0.087000
      7 C7          -0.7540     0.0070    -1.3060 c3         1 1HX      -0.001000
      8 Cl2         -2.4280     0.0010     1.1970 cl         1 1HX       0.075000
      9 F20          2.0610     0.0000    -1.1690 f          1 1HX      -0.082000
     10 C10         -0.6910    -1.3850    -1.9380 c3         1 1HX      -0.114000
     11 N8          -0.1480     0.9830    -2.2140 n7         1 1HX      -0.074000
     12 O11         -2.0750     1.3000    -3.2720 o          1 1HX      -0.445000
     13 C12         -0.2500     2.4310    -4.1780 c2         1 1HX      -0.351000
     14 C16          1.0580     2.8710    -4.1440 c2         1 1HX      -0.114000
     15 C15          1.2500     3.6940    -5.2530 c2         1 1HX      -0.137000
     16 C14          0.0570     3.7440    -5.9460 c2         1 1HX      -0.165000
     17 C18         -0.1830     4.4800    -7.1510 c1         1 1HX      -0.069000
     18 N19         -0.3550     5.0650    -8.1090 n1         1 1HX      -0.049000
     19 N13         -0.8520     2.9660    -5.2860 na         1 1HX       0.480000
     20 C17         -2.2410     2.7420    -5.6950 c3         1 1HX      -0.149000
     21 H1          -0.5410    -0.0010     3.3340 ha         1 1HX       0.120000
     22 H2           1.9240    -0.0000     3.3350 ha         1 1HX       0.111000
     23 H3           3.1590     0.0000     1.2020 ha         1 1HX       0.123000
     24 H4          -1.7870     0.2760    -1.1250 h1         1 1HX       0.089000
     25 H5          -1.6380    -1.6080    -2.4140 hc         1 1HX       0.058333
     26 H6           0.1000    -1.4110    -2.6780 hc         1 1HX       0.058333
     27 H7          -0.4910    -2.1220    -1.1700 hc         1 1HX       0.058333
     28 H8          -0.4100     1.9470    -2.1600 DU         1 1HX       0.115000
     29 H9           1.7940     2.6220    -3.3900 ha         1 1HX       0.143000
     30 H10          2.1710     4.2000    -5.5180 ha         1 1HX       0.136000
     31 H11         -2.3650     3.0390    -6.7300 h1         1 1HX       0.080333
     32 H12         -2.9010     3.3310    -5.0690 h1         1 1HX       0.080333
     33 H13         -2.4850     1.6920    -5.5890 h1         1 1HX       0.080333
     34 C9          -0.8850     1.5380    -3.1960 c3         1 1HX       0.357000
@<TRIPOS>BOND
     1     1     4 1   
     2     1     6 1   
     3     1     7 1   
     4     2     3 1   
     5     2     6 1   
     6     2    21 1   
     7     3     5 1   
     8     3    22 1   
     9     4     5 1   
    10     4     9 1   
    11     5    23 1   
    12     6     8 1   
    13     7    10 1   
    14     7    11 1   
    15     7    24 1   
    16    10    25 1   
    17    10    26 1   
    18    10    27 1   
    19    11    28 1   
    20    11    34 1   
    21    12    34 1   
    22    13    14 1   
    23    13    19 1   
    24    13    34 1   
    25    14    15 1   
    26    14    29 1   
    27    15    16 1   
    28    15    30 1   
    29    16    17 1   
    30    16    19 1   
    31    17    18 1   
    32    19    20 1   
    33    20    31 1   
    34    20    32 1   
    35    20    33 1   
    36    28    34 1   
@<TRIPOS>SUBSTRUCTURE
     1 1HX         1 TEMP              0 ****  ****    0 ROOT
