@<TRIPOS>MOLECULE
1HX
   35    36     1     0     0
SMALL
bcc


@<TRIPOS>ATOM
      1 C4           0.0690     0.2120    -0.3300 ca         1 1HX      -0.194300
      2 C6           1.0350     0.9130     1.7980 ca         1 1HX      -0.120000
      3 C1           2.3090     0.5750     1.3470 ca         1 1HX      -0.059000
      4 C3           1.3760    -0.1080    -0.7720 ca         1 1HX       0.129900
      5 C2           2.4910     0.0680     0.0630 ca         1 1HX      -0.141000
      6 C5          -0.0770     0.7360     0.9660 ca         1 1HX       0.060400
      7 C7          -1.1310    -0.0720    -1.1840 c3         1 1HX       0.195800
      8 Cl2         -1.6020     1.1630     1.5740 cl         1 1HX      -0.040400
      9 F20          1.5620    -0.5820    -2.0320 f          1 1HX      -0.151900
     10 C10         -1.3230    -1.5750    -1.3610 c3         1 1HX      -0.131100
     11 N8          -1.0350     0.6130    -2.5350 ny         1 1HX      -0.671800
     12 O11         -2.4760     2.3740    -2.0700 o          1 1HX      -0.466100
     13 C12         -0.2960     2.9790    -2.8840 cc         1 1HX      -0.259900
     14 C16          1.0400     2.6900    -3.2920 cd         1 1HX      -0.103000
     15 C15          1.6610     3.9140    -3.6100 cd         1 1HX      -0.142000
     16 C14          0.6960     4.9410    -3.3910 cc         1 1HX       0.059700
     17 C18          0.8910     6.3290    -3.5850 cg         1 1HX       0.206800
     18 N19          1.0890     7.4620    -3.7570 n1         1 1HX      -0.254800
     19 N13         -0.4870     4.3750    -2.9490 na         1 1HX       0.029900
     20 C17         -1.6990     5.0650    -2.6150 c3         1 1HX      -0.009400
     21 C9          -1.3450     2.0910    -2.4600 c          1 1HX       0.596700
     22 H1           0.9010     1.3180     2.8160 ha         1 1HX       0.179000
     23 H2           3.1800     0.7090     2.0100 ha         1 1HX       0.173000
     24 H3           3.4940    -0.2020    -0.3050 ha         1 1HX       0.177000
     25 H4          -2.0660     0.3580    -0.6970 hx         1 1HX       0.135700
     26 H5          -2.2490    -1.8010    -1.9440 hc         1 1HX       0.082033
     27 H6          -1.4330    -2.0300    -0.3430 hc         1 1HX       0.082033
     28 H7          -0.4420    -2.0460    -1.8610 hc         1 1HX       0.082033
     29 H8          -0.1010     0.4580    -2.9320 hn         1 1HX       0.461800
     30 H9           1.5130     1.7090    -3.3400 ha         1 1HX       0.167000
     31 H10          2.6800     4.0720    -3.9600 ha         1 1HX       0.197000
     32 H11         -1.5590     6.1690    -2.7640 h1         1 1HX       0.089033
     33 H12         -2.5360     4.6970    -3.2710 h1         1 1HX       0.089033
     34 H13         -1.9670     4.8580    -1.5420 h1         1 1HX       0.089033
     35 H82         -1.7300     0.1760    -3.1530 hn         1 1HX       0.461800
@<TRIPOS>BOND
     1     1     4 ar  
     2     1     6 ar  
     3     1     7 1   
     4     2     3 ar  
     5     2     6 ar  
     6     2    22 1   
     7     3     5 ar  
     8     3    23 1   
     9     4     5 ar  
    10     4     9 1   
    11     5    24 1   
    12     6     8 1   
    13     7    10 1   
    14     7    11 1   
    15     7    25 1   
    16    10    26 1   
    17    10    27 1   
    18    10    28 1   
    19    11    21 1   
    20    11    29 1   
    21    11    35 1   
    22    12    21 2   
    23    13    14 2   
    24    13    19 1   
    25    13    21 1   
    26    14    15 1   
    27    14    30 1   
    28    15    16 2   
    29    15    31 1   
    30    16    17 1   
    31    16    19 1   
    32    17    18 3   
    33    19    20 1   
    34    20    32 1   
    35    20    33 1   
    36    20    34 1   
@<TRIPOS>SUBSTRUCTURE
     1 1HX         1 TEMP              0 ****  ****    0 ROOT
