@<TRIPOS>MOLECULE
1HZ
   55    58     1     0     0
SMALL
bcc


@<TRIPOS>ATOM
      1 O1P          3.8070    -0.3430    -1.9480 o          1 1HZ      -0.572300
      2 S            2.7920    -0.5760    -1.0360 s6         1 1HZ       1.388900
      3 O2P          1.4670    -0.4050    -1.4040 o          1 1HZ      -0.572300
      4 C22          3.0300    -1.9140    -0.0750 c3         1 1HZ      -0.401600
      5 C21          3.2640    -3.1640    -0.9290 c3         1 1HZ       0.011900
      6 C19          3.6480    -4.3270    -0.0890 ca         1 1HZ      -0.110300
      7 C18          2.7940    -5.4280     0.0460 ca         1 1HZ      -0.115000
      8 C17          3.1740    -6.5370     0.7970 ca         1 1HZ      -0.111000
      9 C16          4.4140    -6.5730     1.4340 ca         1 1HZ      -0.151000
     10 C15          5.2750    -5.4790     1.3160 ca         1 1HZ       0.061100
     11 O15          6.5140    -5.4070     1.9140 oh         1 1HZ      -0.512100
     12 C14          4.8970    -4.3520     0.5540 ca         1 1HZ       0.106100
     13 O14          5.7080    -3.2450     0.4350 oh         1 1HZ      -0.537100
     14 N5'          3.0370     0.7120     0.2390 ny         1 1HZ      -0.755900
     15 C5'          2.8840     2.0710    -0.3190 c3         1 1HZ       0.094800
     16 C4'          2.7920     3.1650     0.7560 c3         1 1HZ       0.086100
     17 O4'          3.5720     2.8070     1.9000 os         1 1HZ      -0.418600
     18 C1'          4.6370     3.7400     2.1380 c3         1 1HZ       0.264800
     19 C2'          4.5170     4.8760     1.0700 c3         1 1HZ       0.069100
     20 O2'          4.2940     6.0600     1.8080 oh         1 1HZ      -0.588800
     21 C3'          3.2790     4.5250     0.2170 c3         1 1HZ       0.097100
     22 O3'          2.2790     5.5070     0.3070 oh         1 1HZ      -0.567800
     23 N9           5.9240     3.0930     2.1670 na         1 1HZ      -0.303000
     24 C8           7.0490     3.6890     2.8170 cc         1 1HZ       0.418700
     25 N7           8.1500     2.9380     2.7650 nd         1 1HZ      -0.510100
     26 C5           7.7760     1.7810     2.0670 ca         1 1HZ      -0.236200
     27 C6           8.5210     0.6080     1.7020 ca         1 1HZ       0.789200
     28 N6           9.8320     0.4830     2.0340 nv         1 1HZ      -0.924500
     29 N1           7.8610    -0.3930     1.0050 nb         1 1HZ      -0.778000
     30 C2           6.5610    -0.2000     0.7150 ca         1 1HZ       0.712900
     31 N3           5.7410     0.8500     1.0020 nb         1 1HZ      -0.869000
     32 C4           6.3690     1.8540     1.6830 ca         1 1HZ       0.501800
     33 H1           3.9260    -1.8520     0.6140 h1         1 1HZ       0.163700
     34 H2           2.1620    -2.1400     0.6070 h1         1 1HZ       0.163700
     35 H3           2.3320    -3.4000    -1.5090 hc         1 1HZ       0.079200
     36 H4           4.1000    -2.9560    -1.6560 hc         1 1HZ       0.079200
     37 H5           1.8140    -5.4200    -0.4570 ha         1 1HZ       0.145000
     38 H6           2.4920    -7.3970     0.8870 ha         1 1HZ       0.154000
     39 H7           4.7150    -7.4520     2.0240 ha         1 1HZ       0.153000
     40 H8           6.7180    -6.2780     2.2880 ho         1 1HZ       0.443000
     41 H9           6.5930    -3.4800     0.7620 ho         1 1HZ       0.461000
     42 H10          2.3980     0.6120     1.0260 hn         1 1HZ       0.489300
     43 H11          1.9380     2.1120    -0.9360 hx         1 1HZ       0.113700
     44 H12          3.7720     2.2570    -0.9930 hx         1 1HZ       0.113700
     45 H13          1.7310     3.2400     1.1320 h1         1 1HZ       0.104700
     46 H14          4.4420     4.1630     3.1750 h2         1 1HZ       0.124700
     47 H15          5.4330     4.9730     0.4300 h1         1 1HZ       0.089700
     48 H16          4.2720     6.7930     1.1760 ho         1 1HZ       0.441000
     49 H17          3.5290     4.4790    -0.8780 h1         1 1HZ       0.108700
     50 H18          2.1350     5.7140     1.2440 ho         1 1HZ       0.429000
     51 H19          6.9640     4.6750     3.2960 h5         1 1HZ       0.094800
     52 H20         10.3510    -0.3230     1.7770 hn         1 1HZ       0.465800
     53 H21         10.2800     1.2160     2.5300 hn         1 1HZ       0.465800
     54 H22          6.0910    -1.0380     0.1480 h5         1 1HZ       0.057100
     55 H5'2         4.0230     0.6870     0.6560 hn         1 1HZ       0.489300
@<TRIPOS>BOND
     1     1     2 2   
     2     2     3 2   
     3     2     4 1   
     4     2    14 1   
     5     4     5 1   
     6     4    33 1   
     7     4    34 1   
     8     5     6 1   
     9     5    35 1   
    10     5    36 1   
    11     6     7 ar  
    12     6    12 ar  
    13     7     8 ar  
    14     7    37 1   
    15     8     9 ar  
    16     8    38 1   
    17     9    10 ar  
    18     9    39 1   
    19    10    11 1   
    20    10    12 ar  
    21    11    40 1   
    22    12    13 1   
    23    13    41 1   
    24    14    15 1   
    25    14    42 1   
    26    14    55 1   
    27    15    16 1   
    28    15    43 1   
    29    15    44 1   
    30    16    17 1   
    31    16    21 1   
    32    16    45 1   
    33    17    18 1   
    34    18    19 1   
    35    18    23 1   
    36    18    46 1   
    37    19    20 1   
    38    19    21 1   
    39    19    47 1   
    40    20    48 1   
    41    21    22 1   
    42    21    49 1   
    43    22    50 1   
    44    23    24 1   
    45    23    32 1   
    46    24    25 2   
    47    24    51 1   
    48    25    26 1   
    49    26    27 ar  
    50    26    32 ar  
    51    27    28 1   
    52    27    29 ar  
    53    28    52 1   
    54    28    53 1   
    55    29    30 ar  
    56    30    31 ar  
    57    30    54 1   
    58    31    32 ar  
@<TRIPOS>SUBSTRUCTURE
     1 1HZ         1 TEMP              0 ****  ****    0 ROOT
