@<TRIPOS>MOLECULE
molecule
   54    57     1     0     0
SMALL
bcc


@<TRIPOS>ATOM
      1 O1P          0.0000     0.0000     0.0000 o          1 1HZ      -0.627300
      2 S            1.4210     0.0000     0.0000 s6         1 1HZ       1.326900
      3 O2P          2.1530     0.0000     1.2180 o          1 1HZ      -0.627300
      4 C22          2.0580    -1.2720    -1.1250 c3         1 1HZ      -0.221600
      5 C21          1.7400    -2.6580    -0.5610 c3         1 1HZ      -0.003100
      6 C19          2.2700    -3.7140    -1.4970 ca         1 1HZ      -0.080300
      7 C18          1.4390    -4.2730    -2.4500 ca         1 1HZ      -0.126000
      8 C17          1.9210    -5.2430    -3.3090 ca         1 1HZ      -0.118000
      9 C16          3.2380    -5.6560    -3.2190 ca         1 1HZ      -0.166000
     10 C15          4.0750    -5.1000    -2.2670 ca         1 1HZ       0.072100
     11 O15          5.3710    -5.5060    -2.1790 oh         1 1HZ      -0.503100
     12 C14          3.5910    -4.1210    -1.4060 ca         1 1HZ       0.100100
     13 O14          4.4110    -3.5670    -0.4720 oh         1 1HZ      -0.502100
     14 N5'          1.8290     1.4330    -0.7210 n7         1 1HZ      -0.911100
     15 C5'          1.2370     1.7980    -2.0110 c3         1 1HZ       0.234800
     16 C4'          1.4720     3.2870    -2.2760 c3         1 1HZ       0.117100
     17 O4'          2.8760     3.5360    -2.4560 os         1 1HZ      -0.418600
     18 C1'          2.9940     4.5990    -3.4280 c3         1 1HZ       0.266800
     19 C2'          1.8990     4.2570    -4.4710 c3         1 1HZ       0.092100
     20 O2'          1.4780     5.4310    -5.1690 oh         1 1HZ      -0.554800
     21 C3'          0.7620     3.7050    -3.5780 c3         1 1HZ       0.087100
     22 O3'         -0.2070     4.7230    -3.3160 oh         1 1HZ      -0.568800
     23 N9           4.3210     4.5840    -4.0490 na         1 1HZ      -0.254000
     24 C8           5.1570     3.5120    -4.1400 cc         1 1HZ       0.424700
     25 N7           6.2520     3.8530    -4.7530 nd         1 1HZ      -0.586100
     26 C5           6.1900     5.1630    -5.0940 ca         1 1HZ      -0.214200
     27 C6           7.0530     6.0550    -5.7520 ca         1 1HZ       0.789200
     28 N6           8.2870     5.6350    -6.2150 nv         1 1HZ      -0.983500
     29 N1           6.6550     7.3120    -5.9200 nb         1 1HZ      -0.837000
     30 C2           5.4790     7.7220    -5.4810 ca         1 1HZ       0.742900
     31 N3           4.6390     6.9210    -4.8590 nb         1 1HZ      -0.785000
     32 C4           4.9470     5.6460    -4.6500 ca         1 1HZ       0.483800
     33 H1           1.5920    -1.1610    -2.0970 h1         1 1HZ       0.104200
     34 H2           3.1310    -1.1600    -1.2260 h1         1 1HZ       0.104200
     35 H3           0.6670    -2.7700    -0.4610 hc         1 1HZ       0.064700
     36 H4           2.2070    -2.7690     0.4100 hc         1 1HZ       0.064700
     37 H5           0.4070    -3.9520    -2.5230 ha         1 1HZ       0.138000
     38 H6           1.2670    -5.6790    -4.0540 ha         1 1HZ       0.136000
     39 H7           3.6130    -6.4160    -3.8940 ha         1 1HZ       0.140000
     40 H8           5.4000    -6.4420    -2.0730 ho         1 1HZ       0.418000
     41 H9           4.7040    -4.2360     0.1250 ho         1 1HZ       0.424000
     42 H10          2.4650     2.0590    -0.2670 hn         1 1HZ       0.470800
     43 H11          1.6980     1.2140    -2.7980 h1         1 1HZ       0.052700
     44 H12          0.1730     1.5990    -1.9890 h1         1 1HZ       0.052700
     45 H13          1.0980     3.8780    -1.4490 h1         1 1HZ       0.091700
     46 H14          2.7930     5.5580    -2.9670 h2         1 1HZ       0.118700
     47 H15          2.2490     3.4970    -5.1580 h1         1 1HZ       0.058700
     48 H16          1.1860     5.1940    -6.0340 ho         1 1HZ       0.406000
     49 H17          0.2990     2.8460    -4.0470 h1         1 1HZ       0.047700
     50 H18         -1.0580     4.4250    -3.5890 ho         1 1HZ       0.408000
     51 H19          4.9410     2.5210    -3.7570 h5         1 1HZ       0.085800
     52 H20          8.5760     4.6860    -6.0810 hn         1 1HZ       0.450300
     53 H21          8.8920     6.2800    -6.6840 hn         1 1HZ       0.450300
     54 H22          5.1950     8.7550    -5.6390 h5         1 1HZ       0.062100
@<TRIPOS>BOND
     1    22    21 1   
     2    14    15 1   
     3    14     2 1   
     4    20    19 1   
     5    15    16 1   
     6    21    16 1   
     7    21    19 1   
     8    16    17 1   
     9     1     2 2   
    10    19    18 1   
    11     2     4 1   
    12     2     3 2   
    13     4     5 1   
    14    17    18 1   
    15    18    23 1   
    16    13    12 1   
    17     5     6 1   
    18    23    24 1   
    19    23    32 1   
    20    12     6 ar  
    21    12    10 ar  
    22    24    25 2   
    23     6     7 ar  
    24    31    32 ar  
    25    31    30 ar  
    26    11    10 1   
    27    32    26 ar  
    28    10     9 ar  
    29     7     8 ar  
    30    25    26 1   
    31    30    29 ar  
    32    26    27 ar  
    33     9     8 ar  
    34    29    27 ar  
    35    27    28 1   
    36     4    33 1   
    37     4    34 1   
    38     5    35 1   
    39     5    36 1   
    40     7    37 1   
    41     8    38 1   
    42     9    39 1   
    43    11    40 1   
    44    13    41 1   
    45    14    42 1   
    46    15    43 1   
    47    15    44 1   
    48    16    45 1   
    49    18    46 1   
    50    19    47 1   
    51    20    48 1   
    52    21    49 1   
    53    22    50 1   
    54    24    51 1   
    55    28    52 1   
    56    28    53 1   
    57    30    54 1   
@<TRIPOS>SUBSTRUCTURE
     1 1HZ         1 TEMP              0 ****  ****    0 ROOT
