@<TRIPOS>MOLECULE
1IG
   56    58     1     0     0
SMALL
bcc


@<TRIPOS>ATOM
      1 C1          -0.1670    -0.2520    -0.0970 ca         1 1IG       0.714200
      2 N1           1.1960    -0.1850    -0.1630 nb         1 1IG      -0.817000
      3 C2           1.8720    -0.0980     1.0410 ca         1 1IG       0.919900
      4 N2           1.2680    -0.0090     2.2940 nb         1 1IG      -0.780000
      5 C3          -0.0760    -0.0540     2.3280 ca         1 1IG       0.528600
      6 C4          -0.8670    -0.1950     1.1580 cp         1 1IG      -0.433600
      7 N3          -0.8750    -0.4400    -1.2860 nv         1 1IG      -0.935500
      8 N4           3.2600    -0.1510     1.0020 nv         1 1IG      -0.927500
      9 C5          -0.7590     0.0730     3.6640 c3         1 1IG      -0.141700
     10 C6           0.0240    -0.4870     4.8240 c3         1 1IG      -0.084100
     11 C7          -3.0950     0.7540     1.7450 ca         1 1IG      -0.125000
     12 C8          -4.4760     0.6360     1.7820 ca         1 1IG      -0.078000
     13 C9          -5.1240    -0.5170     1.3180 ca         1 1IG      -0.059100
     14 C10         -4.3570    -1.5770     0.7790 ca         1 1IG       0.045600
     15 C11         -2.9540    -1.4300     0.7170 ca         1 1IG      -0.183000
     16 C12         -2.3190    -0.2840     1.2070 cp         1 1IG       0.029000
     17 S1          -6.7990    -0.5600     1.5000 ss         1 1IG      -0.109000
     18 C14         -7.2870    -1.7400     0.2600 c3         1 1IG      -0.052900
     19 C15         -6.3830    -2.9560     0.3220 c          1 1IG       0.713500
     20 N5          -4.9810    -2.7710     0.3350 n          1 1IG      -0.380000
     21 C16         -4.1660    -3.9360     0.1110 c3         1 1IG       0.079000
     22 C17         -3.6220    -4.5390     1.4330 c3         1 1IG       0.062800
     23 N6          -2.7540    -5.7250     1.1870 ny         1 1IG      -0.681800
     24 C13         -2.1470    -6.2390     2.4860 c          1 1IG       0.555100
     25 C19         -0.9150    -5.5420     2.9470 c3         1 1IG      -0.187100
     26 C21         -7.2480    -1.1560    -1.1380 c3         1 1IG      -0.089600
     27 C20         -8.7070    -2.1250     0.6330 c3         1 1IG      -0.089600
     28 O4          -6.8190    -4.1190     0.3140 o          1 1IG      -0.603500
     29 O1          -2.7350    -7.1790     2.9910 o          1 1IG      -0.390100
     30 HN31        -1.8070    -0.0880    -1.2690 hn         1 1IG       0.419800
     31 HN32        -0.3790    -0.2640    -2.1330 hn         1 1IG       0.419800
     32 HN41         3.7040    -0.0030     0.1250 hn         1 1IG       0.442300
     33 HN42         3.7540     0.1350     1.8150 hn         1 1IG       0.442300
     34 H51         -0.9530     1.1680     3.8370 hc         1 1IG       0.060200
     35 H52         -1.7580    -0.4390     3.6090 hc         1 1IG       0.060200
     36 H61          0.3080    -1.5500     4.6370 hc         1 1IG       0.043033
     37 H62         -0.5980    -0.4420     5.7520 hc         1 1IG       0.043033
     38 H63          0.9590     0.0980     5.0000 hc         1 1IG       0.043033
     39 H11         -2.3160    -2.2100     0.2760 ha         1 1IG       0.127000
     40 H161        -3.3070    -3.6680    -0.5680 h1         1 1IG       0.086200
     41 H162        -4.7920    -4.7180    -0.4140 h1         1 1IG       0.086200
     42 H171        -4.4840    -4.8670     2.0840 hx         1 1IG       0.120200
     43 H172        -3.0150    -3.7630     1.9840 hx         1 1IG       0.120200
     44 HN6         -2.0040    -5.4710     0.5370 hn         1 1IG       0.459300
     45 H191        -1.0710    -4.4350     3.0190 hc         1 1IG       0.117700
     46 H192        -0.0650    -5.7480     2.2470 hc         1 1IG       0.117700
     47 H193        -0.6440    -5.9350     3.9640 hc         1 1IG       0.117700
     48 H211        -7.9410    -0.2800    -1.1970 hc         1 1IG       0.065867
     49 H212        -7.5780    -1.9190    -1.8850 hc         1 1IG       0.065867
     50 H213        -6.2180    -0.8140    -1.4010 hc         1 1IG       0.065867
     51 H201        -9.3620    -1.2200     0.6130 hc         1 1IG       0.065867
     52 H202        -9.1020    -2.8740    -0.0970 hc         1 1IG       0.065867
     53 H203        -8.7380    -2.5800     1.6530 hc         1 1IG       0.065867
     54 H7          -2.6040     1.6620     2.1280 ha         1 1IG       0.157000
     55 H621        -3.3240    -6.4680     0.7590 hn         1 1IG       0.459300
     56 H8          -5.0880     1.4630     2.1830 ha         1 1IG       0.162000
@<TRIPOS>BOND
     1     1     2 ar  
     2     1     6 ar  
     3     1     7 1   
     4     2     3 ar  
     5     3     4 ar  
     6     3     8 1   
     7     4     5 ar  
     8     5     6 ar  
     9     5     9 1   
    10     6    16 1   
    11     7    30 1   
    12     7    31 1   
    13     8    32 1   
    14     8    33 1   
    15     9    10 1   
    16     9    34 1   
    17     9    35 1   
    18    10    36 1   
    19    10    37 1   
    20    10    38 1   
    21    11    12 ar  
    22    11    16 ar  
    23    11    54 1   
    24    12    13 ar  
    25    12    56 1   
    26    13    14 ar  
    27    13    17 1   
    28    14    15 ar  
    29    14    20 1   
    30    15    16 ar  
    31    15    39 1   
    32    17    18 1   
    33    18    19 1   
    34    18    26 1   
    35    18    27 1   
    36    19    20 1   
    37    19    28 2   
    38    20    21 1   
    39    21    22 1   
    40    21    40 1   
    41    21    41 1   
    42    22    23 1   
    43    22    42 1   
    44    22    43 1   
    45    23    24 1   
    46    23    44 1   
    47    23    55 1   
    48    24    25 1   
    49    24    29 2   
    50    25    45 1   
    51    25    46 1   
    52    25    47 1   
    53    26    48 1   
    54    26    49 1   
    55    26    50 1   
    56    27    51 1   
    57    27    52 1   
    58    27    53 1   
@<TRIPOS>SUBSTRUCTURE
     1 1IG         1 TEMP              0 ****  ****    0 ROOT
