@<TRIPOS>MOLECULE
molecule
   55    57     1     0     0
SMALL
bcc


@<TRIPOS>ATOM
      1 C1           0.0000     0.0000     0.0000 ca         1 1IG       0.754200
      2 N1           1.3280     0.0000     0.0000 nb         1 1IG      -0.826000
      3 C2           2.0060     0.0000     1.1390 ca         1 1IG       0.976900
      4 N2           1.3970    -0.0000     2.3160 nb         1 1IG      -0.790000
      5 C3           0.0760     0.0000     2.4020 ca         1 1IG       0.527600
      6 C4          -0.6790    -0.0050     1.2330 cp         1 1IG      -0.384600
      7 N3          -0.7030     0.0000    -1.1910 nv         1 1IG      -1.006500
      8 N4           3.3890    -0.0000     1.0970 nv         1 1IG      -1.053500
      9 C5          -0.6000     0.0000     3.7490 c3         1 1IG      -0.139700
     10 C6          -0.8300     1.4430     4.2060 c3         1 1IG      -0.083100
     11 C7          -2.8400    -1.1020     1.8140 ca         1 1IG      -0.140000
     12 C8          -4.2180    -1.0990     1.8620 ca         1 1IG      -0.078000
     13 C9          -4.9320    -0.0080     1.3830 ca         1 1IG      -0.014100
     14 C10         -4.2630     1.0930     0.8500 ca         1 1IG       0.065600
     15 C11         -2.8750     1.0920     0.8080 ca         1 1IG      -0.162000
     16 C12         -2.1610    -0.0060     1.2850 cp         1 1IG       0.012000
     17 S1          -6.6940    -0.0200     1.4520 ss         1 1IG      -0.229000
     18 C14         -6.9960     1.7500     1.7160 c3         1 1IG      -0.050900
     19 C15         -6.1860     2.5490     0.7360 c          1 1IG       0.709500
     20 N5          -4.9540     2.2000     0.3600 n          1 1IG      -0.363000
     21 C16         -4.2830     3.0390    -0.6350 c3         1 1IG       0.081000
     22 C17         -3.4970     4.1430     0.0750 c3         1 1IG       0.087000
     23 N6          -2.8240     4.9820    -0.9200 ns         1 1IG      -0.591900
     24 C13         -2.0690     6.0250    -0.5230 c          1 1IG       0.658100
     25 C19         -1.3770     6.8880    -1.5470 c3         1 1IG      -0.170100
     26 C21         -8.4830     2.0490     1.5130 c3         1 1IG      -0.071600
     27 C20         -6.5900     2.1290     3.1420 c3         1 1IG      -0.071600
     28 O4          -6.6730     3.5550     0.2650 o          1 1IG      -0.619500
     29 O1          -1.9450     6.2690     0.6590 o          1 1IG      -0.603100
     30 HN31        -1.6540    -0.3110    -1.2110 hn         1 1IG       0.444800
     31 HN32        -0.2460     0.2650    -2.0410 hn         1 1IG       0.444800
     32 HN41         3.8960    -0.8330     1.3230 hn         1 1IG       0.445800
     33 HN42         3.8820     0.8320     0.8420 hn         1 1IG       0.445800
     34 H51         -1.5520    -0.5110     3.6750 hc         1 1IG       0.063200
     35 H52          0.0290    -0.5100     4.4690 hc         1 1IG       0.063200
     36 H61         -0.7080     2.1120     3.3630 hc         1 1IG       0.041033
     37 H62         -1.8330     1.5400     4.6020 hc         1 1IG       0.041033
     38 H63         -0.1110     1.6970     4.9750 hc         1 1IG       0.041033
     39 H8          -4.7460    -1.9510     2.2740 ha         1 1IG       0.148000
     40 H11         -2.3460     1.9460     0.4020 ha         1 1IG       0.153000
     41 H161        -5.0220     3.4860    -1.2890 h1         1 1IG       0.069700
     42 H162        -3.6030     2.4310    -1.2210 h1         1 1IG       0.069700
     43 H171        -2.7580     3.6960     0.7290 h1         1 1IG       0.066200
     44 H172        -4.1760     4.7510     0.6600 h1         1 1IG       0.066200
     45 HN6         -2.9470     4.7960    -1.8960 hn         1 1IG       0.310500
     46 H191        -2.1090     7.5030    -2.0550 hc         1 1IG       0.061033
     47 H192        -0.8720     6.2570    -2.2690 hc         1 1IG       0.061033
     48 H193        -0.6520     7.5230    -1.0530 hc         1 1IG       0.061033
     49 H211        -8.7630     1.8120     0.4930 hc         1 1IG       0.055367
     50 H212        -9.0690     1.4470     2.1970 hc         1 1IG       0.055367
     51 H213        -8.6700     3.0980     1.7040 hc         1 1IG       0.055367
     52 H201        -5.5100     2.1730     3.2110 hc         1 1IG       0.055367
     53 H202        -6.9660     1.3860     3.8350 hc         1 1IG       0.055367
     54 H203        -7.0070     3.0980     3.3910 hc         1 1IG       0.055367
     55 H7          -2.2900    -1.9900     2.1040 ha         1 1IG       0.145000
@<TRIPOS>BOND
     1     1     2 ar  
     2     1     6 ar  
     3     1     7 1   
     4     2     3 ar  
     5     3     4 ar  
     6     3     8 1   
     7     4     5 ar  
     8     5     6 ar  
     9     5     9 1   
    10     6    16 1   
    11     7    30 1   
    12     7    31 1   
    13     8    32 1   
    14     8    33 1   
    15     9    10 1   
    16     9    34 1   
    17     9    35 1   
    18    10    36 1   
    19    10    37 1   
    20    10    38 1   
    21    11    12 ar  
    22    11    16 ar  
    23    11    55 1   
    24    12    13 ar  
    25    12    39 1   
    26    13    14 ar  
    27    13    17 1   
    28    14    15 ar  
    29    14    20 1   
    30    15    16 ar  
    31    15    40 1   
    32    17    18 1   
    33    18    19 1   
    34    18    26 1   
    35    18    27 1   
    36    19    20 1   
    37    19    28 2   
    38    20    21 1   
    39    21    22 1   
    40    21    41 1   
    41    21    42 1   
    42    22    23 1   
    43    22    43 1   
    44    22    44 1   
    45    23    24 1   
    46    23    45 1   
    47    24    25 1   
    48    24    29 2   
    49    25    46 1   
    50    25    47 1   
    51    25    48 1   
    52    26    49 1   
    53    26    50 1   
    54    26    51 1   
    55    27    52 1   
    56    27    53 1   
    57    27    54 1   
@<TRIPOS>SUBSTRUCTURE
     1 1IG         1 TEMP              0 ****  ****    0 ROOT
