@<TRIPOS>MOLECULE
molecule
   96    99     1     0     0
SMALL
bcc


@<TRIPOS>ATOM
      1 C1           0.0000     0.0000     0.0000 c3         1 1IN       0.124000
      2 C2           1.5330     0.0000     0.0000 c3         1 1IN       0.051500
      3 C3           2.0350     1.2310    -0.7100 c          1 1IN       0.660100
      4 O4           9.5220     2.2060     6.1440 oh         1 1IN      -0.579800
      5 O5          -1.8780    -1.7970    -0.8040 o          1 1IN      -0.616100
      6 C7           2.7790     2.1320    -4.2400 c3         1 1IN      -0.101433
      7 C8           1.6520    -1.2870     1.9800 c3         1 1IN       0.088800
      8 C9           0.1280    -1.3720     2.1110 c3         1 1IN       0.103000
      9 C11          4.0700     0.1100     2.7210 c3         1 1IN       0.146100
     10 C12          5.5750     0.3740     2.6410 c3         1 1IN      -0.106400
     11 C13          6.1220     0.6450     4.0430 c3         1 1IN      -0.129700
     12 C14          6.0000    -0.6220     4.8920 c3         1 1IN      -0.035100
     13 C15          6.5380    -0.3540     6.2740 ca         1 1IN      -0.091300
     14 C16          5.7210     0.2060     7.2360 ca         1 1IN      -0.111000
     15 C19          8.3420    -0.4250     7.8460 ca         1 1IN      -0.131500
     16 C20          7.8470    -0.6740     6.5800 ca         1 1IN      -0.111000
     17 C21          7.5710     1.0490     3.9480 c          1 1IN       0.673100
     18 C22          9.3050     2.7490     3.7610 c3         1 1IN       0.123700
     19 C24          9.4930     4.5350     5.3840 c3         1 1IN      -0.117400
     20 C27         -2.9210    -3.9520     0.3370 c3         1 1IN      -0.018100
     21 C30          9.3830     4.0660     2.9610 c3         1 1IN      -0.092700
     22 C32         -4.4490    -5.0040     2.0300 ca         1 1IN      -0.091000
     23 C33         -4.8360    -6.1140     2.7650 ca         1 1IN      -0.252300
     24 C34         -4.1480    -7.3010     2.6040 ca         1 1IN       0.415200
     25 C35         -2.7430    -6.3500     1.0450 ca         1 1IN       0.420200
     26 N1          -0.4650    -1.1570     0.7810 n          1 1IN      -0.496800
     27 O1           2.2930     2.2330    -0.0790 o          1 1IN      -0.592100
     28 N2           2.1970     1.2170    -2.0480 ns         1 1IN      -0.580900
     29 C4           2.6860     2.4130    -2.7390 c3         1 1IN       0.122400
     30 C5           1.7180     3.5730    -2.4970 c3         1 1IN      -0.101433
     31 C6           4.0690     2.7820    -2.2030 c3         1 1IN      -0.101433
     32 N3           2.0240     0.0000     1.3830 n3         1 1IN      -0.635600
     33 O2           3.8380    -1.1220     3.4080 oh         1 1IN      -0.606800
     34 C17          6.2140     0.4520     8.5040 ca         1 1IN      -0.131500
     35 C18          7.5240     0.1360     8.8090 ca         1 1IN      -0.132000
     36 O3           8.4320     0.1990     3.8570 o          1 1IN      -0.616100
     37 N4           7.9090     2.3530     3.9640 ns         1 1IN      -0.560900
     38 C23          9.9750     3.0890     5.1160 c3         1 1IN       0.125100
     39 C25          9.5030     5.2010     3.9920 c3         1 1IN      -0.084400
     40 C28         -3.3800    -5.1300     1.1570 ca         1 1IN      -0.213600
     41 N5          -3.1340    -7.3850     1.7640 nb         1 1IN      -0.687000
     42 H11A        -0.3640     0.9140     0.4530 h1         1 1IN       0.076200
     43 H12         -0.3640    -0.0790    -1.0170 h1         1 1IN       0.076200
     44 H2           1.8910    -0.8870    -0.5080 h1         1 1IN       0.040700
     45 HO4         10.1310     2.2240     6.8640 ho         1 1IN       0.398000
     46 H71          1.7970     1.8800    -4.6220 hc         1 1IN       0.045811
     47 H72          3.4560     1.3040    -4.4110 hc         1 1IN       0.045811
     48 H73          3.1500     3.0130    -4.7500 hc         1 1IN       0.045811
     49 H81          2.1020    -1.3710     2.9620 h1         1 1IN       0.067200
     50 H82          2.0040    -2.0920     1.3460 h1         1 1IN       0.067200
     51 H91         -0.1510    -2.3520     2.4790 h1         1 1IN       0.059200
     52 H92         -0.2210    -0.6060     2.7930 h1         1 1IN       0.059200
     53 H101         3.8430    -0.8790     0.8290 h1         1 1IN       0.051200
     54 H102         3.8090     0.8870     0.7360 h1         1 1IN       0.051200
     55 H11          3.5900     0.9190     3.2600 h1         1 1IN       0.102700
     56 H121         5.7570     1.2350     2.0090 hc         1 1IN       0.056700
     57 H122         6.0710    -0.4930     2.2210 hc         1 1IN       0.056700
     58 H13          5.5540     1.4440     4.5040 hc         1 1IN       0.060700
     59 H141         4.9590    -0.9130     4.9600 hc         1 1IN       0.072200
     60 H142         6.5690    -1.4210     4.4320 hc         1 1IN       0.072200
     61 H16          4.6940     0.4540     6.9980 ha         1 1IN       0.138500
     62 H19          9.3690    -0.6750     8.0860 ha         1 1IN       0.123500
     63 H20          8.4870    -1.1140     5.8250 ha         1 1IN       0.138500
     64 H22          9.8570     1.9670     3.2540 h1         1 1IN       0.091700
     65 H241        10.1780     5.0440     6.0510 hc         1 1IN       0.052200
     66 H242         8.4890     4.5290     5.7920 hc         1 1IN       0.052200
     67 H271        -2.4930    -4.3050    -0.5940 hc         1 1IN       0.066700
     68 H272        -3.7670    -3.3090     0.1240 hc         1 1IN       0.066700
     69 H30         10.2570     4.0560     2.3200 hc         1 1IN       0.060700
     70 H33         -5.6670    -6.0520     3.4560 ha         1 1IN       0.138000
     71 H34         -4.4430    -8.1730     3.1760 h4         1 1IN       0.023100
     72 H35         -1.9070    -6.4570     0.3650 h4         1 1IN       0.023100
     73 HN2          1.9880     0.3890    -2.5690 hn         1 1IN       0.315500
     74 H51          1.8840     4.3430    -3.2410 hc         1 1IN       0.045811
     75 H52          1.8850     3.9830    -1.5090 hc         1 1IN       0.045811
     76 H53          0.6980     3.2140    -2.5710 hc         1 1IN       0.045811
     77 H61          4.6460     1.8800    -2.0400 hc         1 1IN       0.045811
     78 H62          3.9620     3.3160    -1.2660 hc         1 1IN       0.045811
     79 H63          4.5790     3.4120    -2.9220 hc         1 1IN       0.045811
     80 HO2          4.2230    -1.8310     2.9200 ho         1 1IN       0.404000
     81 H17          5.5730     0.8910     9.2580 ha         1 1IN       0.123500
     82 H18          7.9110     0.3300     9.8020 ha         1 1IN       0.121000
     83 HN4          7.2070     3.0500     4.1130 hn         1 1IN       0.318500
     84 H23         11.0540     3.0600     5.0240 h1         1 1IN       0.041700
     85 H251        10.4330     5.7370     3.8450 hc         1 1IN       0.046700
     86 H252         8.6600     5.8760     3.8980 hc         1 1IN       0.046700
     87 C10          3.4900     0.0250     1.3100 c3         1 1IN       0.093800
     88 C31         -1.4020    -1.9930     0.2950 c          1 1IN       0.662100
     89 C29          8.1150     4.2470     2.1250 c3         1 1IN      -0.081100
     90 C26         -1.8600    -3.1710     1.1140 c3         1 1IN      -0.152400
     91 H32         -4.9700    -4.0610     2.1360 ha         1 1IN       0.139000
     92 H291         7.9300     3.3480     1.5500 hc         1 1IN       0.036700
     93 H292         8.2420     5.0860     1.4520 hc         1 1IN       0.036700
     94 H293         7.2740     4.4350     2.7810 hc         1 1IN       0.036700
     95 H261        -1.0160    -3.8170     1.3200 hc         1 1IN       0.064700
     96 H262        -2.2820    -2.8190     2.0470 hc         1 1IN       0.064700
@<TRIPOS>BOND
     1     1     2 1
     2     1    26 1
     3     1    42 1
     4     1    43 1
     5     2     3 1
     6     2    32 1
     7     2    44 1
     8     3    27 2
     9     3    28 1
    10     4    38 1
    11     4    45 1
    12     5    88 2
    13     6    29 1
    14     6    46 1
    15     6    47 1
    16     6    48 1
    17     7     8 1
    18     7    32 1
    19     7    49 1
    20     7    50 1
    21     8    26 1
    22     8    51 1
    23     8    52 1
    24    87     9 1
    25    87    32 1
    26    87    53 1
    27    87    54 1
    28     9    10 1
    29     9    33 1
    30     9    55 1
    31    10    11 1
    32    10    56 1
    33    10    57 1
    34    11    12 1
    35    11    17 1
    36    11    58 1
    37    12    13 1
    38    12    59 1
    39    12    60 1
    40    13    14 ar
    41    13    16 ar
    42    14    34 ar
    43    14    61 1
    44    15    16 ar
    45    15    35 ar
    46    15    62 1
    47    16    63 1
    48    17    36 2
    49    17    37 1
    50    18    21 1
    51    18    37 1
    52    18    38 1
    53    18    64 1
    54    19    38 1
    55    19    39 1
    56    19    65 1
    57    19    66 1
    58    20    90 1
    59    20    40 1
    60    20    67 1
    61    20    68 1
    62    21    39 1
    63    21    89 1
    64    21    69 1
    65    88    26 1
    66    88    90 1
    67    22    23 ar
    68    22    40 ar
    69    22    91 1
    70    23    24 ar
    71    23    70 1
    72    24    41 ar
    73    24    71 1
    74    25    40 ar
    75    25    41 ar
    76    25    72 1
    77    28    29 1
    78    28    73 1
    79    29    30 1
    80    29    31 1
    81    30    74 1
    82    30    75 1
    83    30    76 1
    84    31    77 1
    85    31    78 1
    86    31    79 1
    87    33    80 1
    88    34    35 ar
    89    34    81 1
    90    35    82 1
    91    37    83 1
    92    38    84 1
    93    39    85 1
    94    39    86 1
    95    89    92 1
    96    89    93 1
    97    89    94 1
    98    90    95 1
    99    90    96 1
@<TRIPOS>SUBSTRUCTURE
     1 1IN         1 TEMP              0 ****  ****    0 ROOT
