@<TRIPOS>MOLECULE
1IP
   24    22     1     0     0
SMALL
bcc


@<TRIPOS>ATOM
      1 OAG         0.2380   -0.1530   -0.2300 o         1 1IP     -1.203333
      2 PAP         1.4780   -0.3220   -1.0300 p3        1 1IP      2.531000
      3 OAH         2.5140   -1.2480   -0.4840 o         1 1IP     -1.203333
      4 OAE         1.3470   -0.3020   -2.5140 o         1 1IP     -1.203333
      5 CAJ         2.7420    1.6090   -0.8700 c2        1 1IP     -0.785000
      6 CAM         2.6770    2.8480   -0.1710 c2        1 1IP      0.362000
      7 OAC         3.0060    2.9830    1.0570 o         1 1IP     -0.583000
      8 N           2.3430    4.0300   -0.8930 n         1 1IP     -0.381000
      9 CA          2.2130    5.3100   -0.2480 c3        1 1IP     -0.045000
     10 C           0.9240    6.1250   -0.6060 c2        1 1IP      0.321000
     11 O1          0.3450    5.9560   -1.7160 o         1 1IP     -0.602500
     12 O           0.5470    6.9970    0.2380 o         1 1IP     -0.602500
     13 CB          3.3520    6.2890   -0.6210 c3        1 1IP     -0.169000
     14 CG          4.7660    5.9150   -0.2520 c2        1 1IP      0.303000
     15 OD1         5.7480    6.4600   -0.8320 o         1 1IP     -0.504000
     16 ND2         5.0070    5.0630    0.7980 n         1 1IP     -0.405000
     17 HAJ1        2.6670    1.6210   -1.9640 ha        1 1IP      0.108500
     18 HAJ2        3.4530    0.8960   -0.4310 ha        1 1IP      0.108500
     19 HN          1.7020    3.9010   -1.6460 hn        1 1IP      0.210000
     20 HA          2.2090    5.1730    0.8740 h1        1 1IP      0.100000
     21 HB1         3.3370    6.4620   -1.7290 hc        1 1IP      0.098500
     22 HB2         3.1260    7.2640   -0.1110 hc        1 1IP      0.098500
     23 HD21        5.9160    4.6710    0.8530 hn        1 1IP      0.224000
     24 HD22        4.2560    4.4620    1.0980 hn        1 1IP      0.224000
@<TRIPOS>BOND
     1    1    2 1
     2    2    3 1
     3    2    4 1
     4    5    6 1
     5    5   17 1
     6    5   18 1
     7    6    7 1
     8    6    8 1
     9    8    9 1
    10    8   19 1
    11    9   10 1
    12    9   13 1
    13    9   20 1
    14   10   11 1
    15   10   12 1
    16   13   14 1
    17   13   21 1
    18   13   22 1
    19   14   15 1
    20   14   16 1
    21   16   23 1
    22   16   24 1
@<TRIPOS>SUBSTRUCTURE
     1 1IP         1 TEMP              0 ****  ****    0 ROOT
