@<TRIPOS>MOLECULE
1IQ
   39    41     1     0     0
SMALL
bcc


@<TRIPOS>ATOM
      1 C5'          0.0670     0.0760     0.0060 ca         1 1IQ      -0.135300
      2 C6'          1.4520    -0.2740     0.0240 ca         1 1IQ       0.378600
      3 C7'          2.0720    -0.5380     1.2900 ca         1 1IQ      -0.158300
      4 C8'          1.3440    -0.4560     2.4490 ca         1 1IQ      -0.150000
      5 C9'         -0.0300    -0.1110     2.4210 ca         1 1IQ      -0.145000
      6 CA'         -0.6530     0.1490     1.2280 ca         1 1IQ      -0.110000
      7 N1'          2.1960    -0.3690    -1.1320 nb         1 1IQ      -0.651000
      8 C4'         -0.5360     0.3440    -1.2510 ca         1 1IQ      -0.093000
      9 C3'          0.2060     0.2680    -2.4100 ca         1 1IQ      -0.196900
     10 C2'          1.5860    -0.1110    -2.2900 ca         1 1IQ       0.417000
     11 CB'         -0.4670     0.5970    -3.7380 c          1 1IQ       0.912200
     12 OC'         -1.3350    -0.2040    -4.1680 o          1 1IQ      -0.808300
     13 OD'         -0.1380     1.6790    -4.3040 o          1 1IQ      -0.808300
     14 N3           3.0660    -1.3390    -3.8750 n2         1 1IQ      -0.602900
     15 C2           2.4120    -0.2480    -3.5250 ce         1 1IQ       0.396900
     16 N1           2.5720     0.8740    -4.3930 ns         1 1IQ      -0.491400
     17 C5           3.3420     0.4350    -5.4890 c          1 1IQ       0.667500
     18 C4           3.7440    -1.0540    -5.1730 c3         1 1IQ       0.039200
     19 O6           3.6610     1.1130    -6.4720 o          1 1IQ      -0.616500
     20 C8           5.2750    -1.2020    -5.0620 c3         1 1IQ      -0.034700
     21 C7           3.1990    -1.9380    -6.2930 c3         1 1IQ      -0.077100
     22 C10          5.8670    -0.2030    -4.0900 c3         1 1IQ      -0.099600
     23 C9           5.9440    -1.0640    -6.4160 c3         1 1IQ      -0.099600
     24 H7'          3.1390    -0.8080     1.3130 ha         1 1IQ       0.139000
     25 H8'          1.8200    -0.6590     3.4190 ha         1 1IQ       0.118000
     26 H9'         -0.5840    -0.0560     3.3690 ha         1 1IQ       0.117000
     27 H10'        -1.7190     0.4170     1.1900 ha         1 1IQ       0.128000
     28 H4'         -1.6030     0.6090    -1.2980 ha         1 1IQ       0.148000
     29 HN1          1.8600     1.5810    -4.4580 hn         1 1IQ       0.390500
     30 H8           5.4780    -2.2410    -4.6720 hc         1 1IQ       0.055700
     31 H71          3.5930    -2.9760    -6.1870 hc         1 1IQ       0.047033
     32 H72          3.5170    -1.5180    -7.2780 hc         1 1IQ       0.047033
     33 H73          2.0820    -1.9730    -6.2690 hc         1 1IQ       0.047033
     34 H101         6.9750    -0.3340    -4.0360 hc         1 1IQ       0.038200
     35 H102         5.4480    -0.3430    -3.0650 hc         1 1IQ       0.038200
     36 H103         5.6510     0.8420    -4.4250 hc         1 1IQ       0.038200
     37 H91          5.7080    -1.9410    -7.0650 hc         1 1IQ       0.038200
     38 H92          7.0520    -1.0120    -6.2890 hc         1 1IQ       0.038200
     39 H93          5.5980    -0.1330    -6.9300 hc         1 1IQ       0.038200
@<TRIPOS>BOND
     1     1     2 ar  
     2     1     6 ar  
     3     1     8 ar  
     4     2     3 ar  
     5     2     7 ar  
     6     3     4 ar  
     7     3    24 1   
     8     4     5 ar  
     9     4    25 1   
    10     5     6 ar  
    11     5    26 1   
    12     6    27 1   
    13     7    10 ar  
    14     8     9 ar  
    15     8    28 1   
    16     9    10 ar  
    17     9    11 1   
    18    10    15 1   
    19    11    12 1   
    20    11    13 1   
    21    14    15 2   
    22    14    18 1   
    23    15    16 1   
    24    16    17 1   
    25    16    29 1   
    26    17    18 1   
    27    17    19 2   
    28    18    20 1   
    29    18    21 1   
    30    20    22 1   
    31    20    23 1   
    32    20    30 1   
    33    21    31 1   
    34    21    32 1   
    35    21    33 1   
    36    22    34 1   
    37    22    35 1   
    38    22    36 1   
    39    23    37 1   
    40    23    38 1   
    41    23    39 1   
@<TRIPOS>SUBSTRUCTURE
     1 1IQ         1 TEMP              0 ****  ****    0 ROOT
