@<TRIPOS>MOLECULE
1IQ
   39    41     1     0     0
SMALL
bcc


@<TRIPOS>ATOM
      1 C5'          0.0000     0.0000     0.0000 ca         1 1IQ      -0.157300
      2 C6'          1.4190     0.0000     0.0000 ca         1 1IQ       0.362600
      3 C7'          2.1010     0.0000     1.2300 ca         1 1IQ      -0.142300
      4 C8'          1.3950    -0.0000     2.3950 ca         1 1IQ      -0.120000
      5 C9'          0.0020    -0.0010     2.3910 ca         1 1IQ      -0.127000
      6 CA'         -0.6940    -0.0010     1.2210 ca         1 1IQ      -0.073000
      7 N1'          2.0930     0.0000    -1.1530 nb         1 1IQ      -0.586000
      8 C4'         -0.6870     0.0010    -1.2270 ca         1 1IQ      -0.032000
      9 C3'          0.0620     0.0060    -2.3960 ca         1 1IQ      -0.199900
     10 C2'          1.4740     0.0010    -2.3150 ca         1 1IQ       0.385000
     11 CB'         -0.6090     0.0080    -3.7110 c          1 1IQ       0.974200
     12 OC'         -1.9500     0.1150    -3.7830 o          1 1IQ      -0.869800
     13 OD'          0.0490    -0.0870    -4.7280 o          1 1IQ      -0.869800
     14 N3           2.7390    -1.0720    -4.1180 n2         1 1IQ      -0.581900
     15 C2           2.2750     0.0010    -3.5630 ce         1 1IQ       0.302900
     16 N1           2.6010     1.1440    -4.2570 ns         1 1IQ      -0.039400
     17 C5           3.3330     0.8420    -5.3540 c          1 1IQ       0.609500
     18 C4           3.4710    -0.6680    -5.3270 c3         1 1IQ       0.022200
     19 O6           3.7800     1.6120    -6.1770 o          1 1IQ      -0.671500
     20 C8           4.9440    -1.0690    -5.2220 c3         1 1IQ      -0.021700
     21 C7           2.8360    -1.2880    -6.5730 c3         1 1IQ       0.016900
     22 C10          5.0630    -2.5940    -5.2720 c3         1 1IQ      -0.010100
     23 C9           5.7240    -0.4580    -6.3880 c3         1 1IQ      -0.010100
     24 H7'          3.1840     0.0010     1.2510 ha         1 1IQ       0.107000
     25 H8'          1.9260    -0.0010     3.3390 ha         1 1IQ       0.090000
     26 H9'         -0.5350    -0.0010     3.3320 ha         1 1IQ       0.090000
     27 H10'        -1.7780    -0.0020     1.2310 ha         1 1IQ       0.104000
     28 H4'         -1.7700     0.0050    -1.2590 ha         1 1IQ       0.141000
     29 HN1          2.3340     2.0700    -3.9870 hn         1 1IQ       0.179500
     30 H8           5.3510    -0.7060    -4.2860 hc         1 1IQ       0.022700
     31 H71          3.6050    -1.4860    -7.3100 hc         1 1IQ       0.018700
     32 H72          2.3450    -2.2160    -6.3040 hc         1 1IQ       0.018700
     33 H73          2.1080    -0.6010    -6.9870 hc         1 1IQ       0.018700
     34 H101         4.2820    -3.0370    -4.6660 hc         1 1IQ       0.008033
     35 H102         6.0310    -2.8930    -4.8890 hc         1 1IQ       0.008033
     36 H103         4.9600    -2.9300    -6.2970 hc         1 1IQ       0.008033
     37 H91          5.0800    -0.3890    -7.2570 hc         1 1IQ       0.008033
     38 H92          6.0670     0.5330    -6.1140 hc         1 1IQ       0.008033
     39 H93          6.5770    -1.0840    -6.6200 hc         1 1IQ       0.008033
@<TRIPOS>BOND
     1     1     2 ar  
     2     1     6 ar  
     3     1     8 ar  
     4     2     3 ar  
     5     2     7 ar  
     6     3     4 ar  
     7     3    24 1   
     8     4     5 ar  
     9     4    25 1   
    10     5     6 ar  
    11     5    26 1   
    12     6    27 1   
    13     7    10 ar  
    14     8     9 ar  
    15     8    28 1   
    16     9    10 ar  
    17     9    11 1   
    18    10    15 1   
    19    11    12 1   
    20    11    13 1   
    21    14    15 2   
    22    14    18 1   
    23    15    16 1   
    24    16    17 1   
    25    16    29 1   
    26    17    18 1   
    27    17    19 2   
    28    18    20 1   
    29    18    21 1   
    30    20    22 1   
    31    20    23 1   
    32    20    30 1   
    33    21    31 1   
    34    21    32 1   
    35    21    33 1   
    36    22    34 1   
    37    22    35 1   
    38    22    36 1   
    39    23    37 1   
    40    23    38 1   
    41    23    39 1   
@<TRIPOS>SUBSTRUCTURE
     1 1IQ         1 TEMP              0 ****  ****    0 ROOT
