@<TRIPOS>MOLECULE
1IR
   42    46     1     0     0
SMALL
bcc


@<TRIPOS>ATOM
      1 C01          0.5540     0.4540    -0.5550 c3         1 1IR       0.127700
      2 O02          1.9320     0.4620    -0.1540 os         1 1IR      -0.412400
      3 C03          2.1430     0.2540     1.1920 cc         1 1IR       0.617100
      4 N04          1.2050     0.0390     2.1510 nd         1 1IR      -0.613100
      5 C05          1.9480    -0.1100     3.3350 ca         1 1IR      -0.011900
      6 C06          1.5640    -0.3510     4.6590 ca         1 1IR      -0.048000
      7 C07          2.5720    -0.4460     5.6100 ca         1 1IR      -0.260300
      8 C08          3.9290    -0.3010     5.2310 ca         1 1IR       0.401200
      9 N09          4.3650    -0.0700     3.9840 nb         1 1IR      -0.654000
     10 C10          3.3810     0.0240     3.0510 ca         1 1IR       0.401800
     11 N11          3.4830     0.2610     1.6590 na         1 1IR      -0.252000
     12 C12          4.6870     0.4400     0.9140 cy         1 1IR       0.043000
     13 C13          4.9020    -0.4770    -0.3310 cy         1 1IR      -0.115900
     14 C14          5.0570     0.7840    -1.2390 cy         1 1IR       0.189500
     15 C15          4.7740     1.6990    -0.0060 cy         1 1IR      -0.115900
     16 N16          4.1330     0.9570    -2.3290 nu         1 1IR      -0.754200
     17 C17          4.3510     0.2700    -3.5210 cc         1 1IR       0.583100
     18 N18          5.4310    -0.4390    -3.8630 nd         1 1IR      -0.593100
     19 C19          5.3170    -0.8600    -5.1950 ca         1 1IR       0.117400
     20 C20          6.2750    -1.6210    -5.8930 ca         1 1IR      -0.090000
     21 C21          6.0200    -1.9800    -7.2070 ca         1 1IR      -0.123000
     22 C22          4.8310    -1.5990    -7.8480 ca         1 1IR      -0.133000
     23 C23          3.8740    -0.8480    -7.1790 ca         1 1IR      -0.083000
     24 C24          4.1050    -0.4720    -5.8570 ca         1 1IR      -0.092100
     25 S25          3.1360     0.4360    -4.8080 ss         1 1IR      -0.097100
     26 H01          0.0940    -0.5400    -0.3410 h1         1 1IR       0.060033
     27 H01A        -0.0050     1.2700    -0.0390 h1         1 1IR       0.060033
     28 H01B         0.6210     0.6420    -1.6570 h1         1 1IR       0.060033
     29 H06          0.5030    -0.4590     4.9270 ha         1 1IR       0.153000
     30 H07          2.3280    -0.6340     6.6640 ha         1 1IR       0.145000
     31 H08          4.7270    -0.3780     5.9930 h4         1 1IR       0.025100
     32 H12          5.5500     0.3840     1.6300 h1         1 1IR       0.103700
     33 H13          4.0340    -1.1230    -0.5840 hc         1 1IR       0.072700
     34 H13A         5.8220    -1.0930    -0.2640 hc         1 1IR       0.072700
     35 H14          6.1030     0.9000    -1.6240 h1         1 1IR       0.096700
     36 H15          3.8370     2.2920    -0.0680 hc         1 1IR       0.072700
     37 H15A         5.6260     2.3630     0.2470 hc         1 1IR       0.072700
     38 HN16         3.1720     0.9340    -2.0380 hn         1 1IR       0.417800
     39 H20          7.2090    -1.9200    -5.3940 ha         1 1IR       0.150000
     40 H21          6.7620    -2.5740    -7.7610 ha         1 1IR       0.135000
     41 H22          4.6580    -1.9000    -8.8920 ha         1 1IR       0.135000
     42 H23          2.9440    -0.5500    -7.6850 ha         1 1IR       0.138000
@<TRIPOS>BOND
     1     1     2 1   
     2     1    26 1   
     3     1    27 1   
     4     1    28 1   
     5     2     3 1   
     6     3     4 2   
     7     3    11 1   
     8     4     5 1   
     9     5     6 ar  
    10     5    10 ar  
    11     6     7 ar  
    12     6    29 1   
    13     7     8 ar  
    14     7    30 1   
    15     8     9 ar  
    16     8    31 1   
    17     9    10 ar  
    18    10    11 1   
    19    11    12 1   
    20    12    13 1   
    21    12    15 1   
    22    12    32 1   
    23    13    14 1   
    24    13    33 1   
    25    13    34 1   
    26    14    15 1   
    27    14    16 1   
    28    14    35 1   
    29    15    36 1   
    30    15    37 1   
    31    16    17 1   
    32    16    38 1   
    33    17    18 2   
    34    17    25 1   
    35    18    19 1   
    36    19    20 ar  
    37    19    24 ar  
    38    20    21 ar  
    39    20    39 1   
    40    21    22 ar  
    41    21    40 1   
    42    22    23 ar  
    43    22    41 1   
    44    23    24 ar  
    45    23    42 1   
    46    24    25 1   
@<TRIPOS>SUBSTRUCTURE
     1 1IR         1 TEMP              0 ****  ****    0 ROOT
