@<TRIPOS>MOLECULE
1IR
   42    46     1     0     0
SMALL
bcc


@<TRIPOS>ATOM
      1 C01          0.0000     0.0000     0.0000 c3         1 1IR       0.264700
      2 O02          1.4290     0.0000     0.0000 os         1 1IR      -0.390400
      3 C03          2.0420     0.0000     1.2060 cc         1 1IR       0.460100
      4 N04          1.4280    -0.0020     2.3610 nd         1 1IR      -0.598100
      5 C05          2.3460    -0.0030     3.3610 ca         1 1IR      -0.016900
      6 C06          2.2570    -0.0050     4.7560 ca         1 1IR      -0.022000
      7 C07          3.4320    -0.0050     5.4850 ca         1 1IR      -0.230300
      8 C08          4.6470    -0.0030     4.8220 ca         1 1IR       0.398200
      9 N09          4.7110    -0.0020     3.5060 nb         1 1IR      -0.556000
     10 C10          3.6190    -0.0010     2.7610 ca         1 1IR       0.194800
     11 N11          3.3930    -0.0050     1.3970 na         1 1IR       0.219000
     12 C12          4.4180    -0.0110     0.3490 cy         1 1IR      -0.075000
     13 C13          4.3390    -1.2310    -0.5830 cy         1 1IR      -0.072900
     14 C14          4.6570    -0.2700    -1.7400 cy         1 1IR       0.110500
     15 C15          4.0520     0.8470    -0.8740 cy         1 1IR      -0.072900
     16 N16          3.8930    -0.5460    -2.9590 nu         1 1IR      -0.405200
     17 C17          4.3890    -0.1590    -4.1870 cc         1 1IR       0.504100
     18 N18          3.7960    -0.3540    -5.3140 nd         1 1IR      -0.562100
     19 C19          4.4090     0.0830    -6.4330 ca         1 1IR       0.130400
     20 C20          3.9740    -0.0070    -7.7720 ca         1 1IR      -0.071000
     21 C21          4.7420     0.5020    -8.7890 ca         1 1IR      -0.086000
     22 C22          5.9570     1.1130    -8.5180 ca         1 1IR      -0.116000
     23 C23          6.4030     1.2130    -7.2170 ca         1 1IR      -0.034000
     24 C24          5.6360     0.7020    -6.1740 ca         1 1IR      -0.039100
     25 S25          5.9160     0.6770    -4.4340 ss         1 1IR      -0.251100
     26 H01         -0.3610    -0.8790     0.5190 h1         1 1IR       0.005700
     27 H01A        -0.3610     0.8900     0.5020 h1         1 1IR       0.005700
     28 H01B        -0.3610    -0.0100    -1.0210 h1         1 1IR       0.005700
     29 H06          1.2940    -0.0060     5.2520 ha         1 1IR       0.115000
     30 H07          3.4020    -0.0060     6.5680 ha         1 1IR       0.115000
     31 H08          5.5650    -0.0040     5.3970 h4         1 1IR      -0.019900
     32 H12          5.4220     0.1780     0.7070 h1         1 1IR       0.082700
     33 H13          5.1270    -1.9530    -0.4030 hc         1 1IR       0.049950
     34 H13A         3.3440    -1.6540    -0.6440 hc         1 1IR       0.049950
     35 H14          5.7210    -0.1460    -1.9000 h1         1 1IR       0.071700
     36 H15          4.6120     1.7730    -0.9240 hc         1 1IR       0.049950
     37 H15A         2.9830     0.9570    -1.0100 hc         1 1IR       0.049950
     38 HN16         3.0290    -1.0480    -2.9040 hn         1 1IR       0.305800
     39 H20          3.0280    -0.4820    -7.9990 ha         1 1IR       0.113000
     40 H21          4.3960     0.4260    -9.8120 ha         1 1IR       0.104000
     41 H22          6.5560     1.5120    -9.3280 ha         1 1IR       0.107000
     42 H23          7.3520     1.6910    -7.0070 ha         1 1IR       0.108000
@<TRIPOS>BOND
     1     1     2 1   
     2     1    26 1   
     3     1    27 1   
     4     1    28 1   
     5     2     3 1   
     6     3     4 2   
     7     3    11 1   
     8     4     5 1   
     9     5     6 ar  
    10     5    10 ar  
    11     6     7 ar  
    12     6    29 1   
    13     7     8 ar  
    14     7    30 1   
    15     8     9 ar  
    16     8    31 1   
    17     9    10 ar  
    18    10    11 1   
    19    11    12 1   
    20    12    13 1   
    21    12    15 1   
    22    12    32 1   
    23    13    14 1   
    24    13    33 1   
    25    13    34 1   
    26    14    15 1   
    27    14    16 1   
    28    14    35 1   
    29    15    36 1   
    30    15    37 1   
    31    16    17 1   
    32    16    38 1   
    33    17    18 2   
    34    17    25 1   
    35    18    19 1   
    36    19    20 ar  
    37    19    24 ar  
    38    20    21 ar  
    39    20    39 1   
    40    21    22 ar  
    41    21    40 1   
    42    22    23 ar  
    43    22    41 1   
    44    23    24 ar  
    45    23    42 1   
    46    24    25 1   
@<TRIPOS>SUBSTRUCTURE
     1 1IR         1 TEMP              0 ****  ****    0 ROOT
