@<TRIPOS>MOLECULE
molecule
   42    46     1     0     0
SMALL
bcc


@<TRIPOS>ATOM
      1 C01          0.0000     0.0000     0.0000 c3         1 1IR       0.144700
      2 O02          1.4290     0.0000     0.0000 os         1 1IR      -0.402400
      3 C03          2.0420     0.0000     1.2060 cc         1 1IR       0.644100
      4 N04          1.4280    -0.0020     2.3610 nd         1 1IR      -0.668100
      5 C05          2.3460    -0.0030     3.3610 ca         1 1IR       0.005100
      6 C06          2.2570    -0.0050     4.7560 ca         1 1IR      -0.050000
      7 C07          3.4320    -0.0050     5.4850 ca         1 1IR      -0.266300
      8 C08          4.6470    -0.0030     4.8220 ca         1 1IR       0.433200
      9 N09          4.7110    -0.0020     3.5060 nb         1 1IR      -0.696000
     10 C10          3.6190    -0.0010     2.7610 ca         1 1IR       0.418800
     11 N11          3.3930    -0.0050     1.3970 na         1 1IR      -0.245000
     12 C12          4.4180    -0.0110     0.3490 cy         1 1IR       0.041000
     13 C13          4.3390    -1.2310    -0.5830 cy         1 1IR      -0.125400
     14 C14          4.6570    -0.2700    -1.7400 cy         1 1IR       0.219500
     15 C15          4.0520     0.8470    -0.8740 cy         1 1IR      -0.125400
     16 N16          3.8930    -0.5460    -2.9590 nu         1 1IR      -0.839200
     17 C17          4.3890    -0.1590    -4.1870 cc         1 1IR       0.676100
     18 N18          3.7960    -0.3540    -5.3140 nd         1 1IR      -0.675100
     19 C19          4.4090     0.0830    -6.4330 ca         1 1IR       0.172400
     20 C20          3.9740    -0.0070    -7.7720 ca         1 1IR      -0.097000
     21 C21          4.7420     0.5020    -8.7890 ca         1 1IR      -0.116000
     22 C22          5.9570     1.1130    -8.5180 ca         1 1IR      -0.140000
     23 C23          6.4030     1.2130    -7.2170 ca         1 1IR      -0.076000
     24 C24          5.6360     0.7020    -6.1740 ca         1 1IR      -0.065100
     25 S25          5.9160     0.6770    -4.4340 ss         1 1IR      -0.181100
     26 H01         -0.3610    -0.8790     0.5190 h1         1 1IR       0.055367
     27 H01A        -0.3610     0.8900     0.5020 h1         1 1IR       0.055367
     28 H01B        -0.3610    -0.0100    -1.0210 h1         1 1IR       0.055367
     29 H06          1.2940    -0.0060     5.2520 ha         1 1IR       0.149000
     30 H07          3.4020    -0.0060     6.5680 ha         1 1IR       0.142000
     31 H08          5.5650    -0.0040     5.3970 h4         1 1IR       0.026100
     32 H12          5.4220     0.1780     0.7070 h1         1 1IR       0.110700
     33 H13          5.1270    -1.9530    -0.4030 hc         1 1IR       0.079450
     34 H13A         3.3440    -1.6540    -0.6440 hc         1 1IR       0.079450
     35 H14          5.7210    -0.1460    -1.9000 h1         1 1IR       0.088700
     36 H15          4.6120     1.7730    -0.9240 hc         1 1IR       0.079450
     37 H15A         2.9830     0.9570    -1.0100 hc         1 1IR       0.079450
     38 HN16         3.0290    -1.0480    -2.9040 hn         1 1IR       0.464800
     39 H20          3.0280    -0.4820    -7.9990 ha         1 1IR       0.144000
     40 H21          4.3960     0.4260    -9.8120 ha         1 1IR       0.134000
     41 H22          6.5560     1.5120    -9.3280 ha         1 1IR       0.134000
     42 H23          7.3520     1.6910    -7.0070 ha         1 1IR       0.133000
@<TRIPOS>BOND
     1     1     2 1   
     2     2     3 1   
     3     3     4 2   
     4     3    11 1   
     5     4     5 1   
     6     5     6 ar  
     7     5    10 ar  
     8     6     7 ar  
     9     7     8 ar  
    10     8     9 ar  
    11     9    10 ar  
    12    10    11 1   
    13    11    12 1   
    14    12    13 1   
    15    12    15 1   
    16    13    14 1   
    17    14    15 1   
    18    14    16 1   
    19    16    17 1   
    20    17    18 2   
    21    17    25 1   
    22    18    19 1   
    23    19    20 ar  
    24    19    24 ar  
    25    20    21 ar  
    26    21    22 ar  
    27    22    23 ar  
    28    23    24 ar  
    29    24    25 1   
    30     1    26 1   
    31     1    27 1   
    32     1    28 1   
    33     6    29 1   
    34     7    30 1   
    35     8    31 1   
    36    12    32 1   
    37    13    33 1   
    38    13    34 1   
    39    14    35 1   
    40    15    36 1   
    41    15    37 1   
    42    16    38 1   
    43    20    39 1   
    44    21    40 1   
    45    22    41 1   
    46    23    42 1   
@<TRIPOS>SUBSTRUCTURE
     1 1IR         1 TEMP              0 ****  ****    0 ROOT
