@<TRIPOS>MOLECULE
molecule
   42    46     1     0     0
SMALL
bcc


@<TRIPOS>ATOM
      1 C01          0.0000     0.0000     0.0000 c3         1 1IS       0.149700
      2 O02          1.4290     0.0000     0.0000 os         1 1IS      -0.395400
      3 C03          2.0430     0.0000     1.2050 cc         1 1IS       0.652100
      4 N04          1.4290    -0.0000     2.3600 nd         1 1IS      -0.671100
      5 C05          2.3470    -0.0010     3.3610 ca         1 1IS       0.009100
      6 C06          2.2570    -0.0030     4.7550 ca         1 1IS      -0.047000
      7 C07          3.4330    -0.0030     5.4850 ca         1 1IS      -0.265300
      8 C08          4.6490    -0.0030     4.8210 ca         1 1IS       0.436200
      9 N09          4.7120    -0.0020     3.5060 nb         1 1IS      -0.708000
     10 C10          3.6190    -0.0010     2.7600 ca         1 1IS       0.412800
     11 N11          3.3940    -0.0060     1.3960 na         1 1IS      -0.241000
     12 C12          4.4180    -0.0130     0.3490 cy         1 1IS       0.031000
     13 C13          5.2140    -1.3270     0.2730 cy         1 1IS      -0.121400
     14 C14          6.1850    -0.7040     1.2920 cy         1 1IS       0.203500
     15 C15          5.7320     0.6680     0.7670 cy         1 1IS      -0.121400
     16 N16          7.5920    -1.0020     1.0190 nu         1 1IS      -0.841200
     17 C17          8.5130    -0.9850     2.0460 cc         1 1IS       0.681100
     18 N18          9.7710    -1.2310     1.9110 nd         1 1IS      -0.683100
     19 C19         10.5470    -1.1730     3.0120 ca         1 1IS       0.173400
     20 C20         11.9350    -1.3980     3.1260 ca         1 1IS      -0.099000
     21 C21         12.5580    -1.2930     4.3450 ca         1 1IS      -0.117000
     22 C22         11.8350    -0.9640     5.4810 ca         1 1IS      -0.143000
     23 C23         10.4790    -0.7390     5.3920 ca         1 1IS      -0.076000
     24 C24          9.8300    -0.8420     4.1640 ca         1 1IS      -0.077100
     25 S25          8.1390    -0.6140     3.7230 ss         1 1IS      -0.158100
     26 H01         -0.3610    -0.0000    -1.0210 h1         1 1IS       0.055033
     27 H01A        -0.3610    -0.8840     0.5110 h1         1 1IS       0.055033
     28 H01B        -0.3610     0.8850     0.5100 h1         1 1IS       0.055033
     29 H06          1.2940    -0.0020     5.2510 ha         1 1IS       0.151000
     30 H07          3.4030    -0.0040     6.5680 ha         1 1IS       0.144000
     31 H08          5.5670    -0.0040     5.3960 h4         1 1IS       0.031100
     32 H12          4.0650     0.3190    -0.6200 h1         1 1IS       0.093700
     33 H13          4.6710    -2.1760     0.6700 hc         1 1IS       0.075200
     34 H13A         5.6670    -1.4930    -0.6970 hc         1 1IS       0.075200
     35 H14          5.8830    -0.8800     2.3170 h1         1 1IS       0.140700
     36 H15          6.3170     1.0140    -0.0760 hc         1 1IS       0.075200
     37 H15A         5.5980     1.4000     1.5550 hc         1 1IS       0.075200
     38 HN16         7.8830    -1.2370     0.0900 hn         1 1IS       0.455800
     39 H20         12.5120    -1.6560     2.2470 ha         1 1IS       0.142000
     40 H21         13.6240    -1.4690     4.4190 ha         1 1IS       0.132000
     41 H22         12.3360    -0.8830     6.4380 ha         1 1IS       0.132000
     42 H23          9.9150    -0.4820     6.2810 ha         1 1IS       0.130000
@<TRIPOS>BOND
     1     1     2 1
     2     2     3 1
     3     3     4 2
     4     3    11 1
     5     4     5 1
     6     5     6 ar
     7     5    10 ar
     8     6     7 ar
     9     7     8 ar
    10     8     9 ar
    11     9    10 ar
    12    10    11 1
    13    11    12 1
    14    12    13 1
    15    12    15 1
    16    13    14 1
    17    14    15 1
    18    14    16 1
    19    16    17 1
    20    17    18 2
    21    17    25 1
    22    18    19 1
    23    19    20 ar
    24    19    24 ar
    25    20    21 ar
    26    21    22 ar
    27    22    23 ar
    28    23    24 ar
    29    24    25 1
    30     1    26 1
    31     1    27 1
    32     1    28 1
    33     6    29 1
    34     7    30 1
    35     8    31 1
    36    12    32 1
    37    13    33 1
    38    13    34 1
    39    14    35 1
    40    15    36 1
    41    15    37 1
    42    16    38 1
    43    20    39 1
    44    21    40 1
    45    22    41 1
    46    23    42 1
@<TRIPOS>SUBSTRUCTURE
     1 1IS         1 TEMP              0 ****  ****    0 ROOT
