@<TRIPOS>MOLECULE
1IS
   42    46     1     0     0
SMALL
bcc


@<TRIPOS>ATOM
      1 C01         -1.0580     0.2810     1.8990 c3         1 1IS       0.129700
      2 O02          0.1630     0.5420     1.1920 os         1 1IS      -0.401400
      3 C03          1.3100     0.2410     1.8920 cc         1 1IS       0.619100
      4 N04          1.4190    -0.2800     3.1400 nd         1 1IS      -0.613100
      5 C05          2.8060    -0.3820     3.3520 ca         1 1IS      -0.012900
      6 C06          3.5550    -0.8440     4.4400 ca         1 1IS      -0.049000
      7 C07          4.9400    -0.8100     4.3220 ca         1 1IS      -0.260300
      8 C08          5.5450    -0.3220     3.1400 ca         1 1IS       0.398200
      9 N09          4.8880     0.1360     2.0630 nb         1 1IS      -0.653000
     10 C10          3.5340     0.1030     2.1740 ca         1 1IS       0.399800
     11 N11          2.5450     0.5080     1.2460 na         1 1IS      -0.255000
     12 C12          2.7150     1.0120    -0.0770 cy         1 1IS       0.045000
     13 C13          3.5820     0.1770    -1.0690 cy         1 1IS      -0.112400
     14 C14          4.5250     1.4020    -1.2840 cy         1 1IS       0.188500
     15 C15          3.6740     2.2290    -0.2690 cy         1 1IS      -0.112400
     16 N16          4.6210     1.9800    -2.5990 nu         1 1IS      -0.759200
     17 C17          5.4450     1.3860    -3.5510 cc         1 1IS       0.582100
     18 N18          6.3040     0.3790    -3.3670 nd         1 1IS      -0.587100
     19 C19          7.0340     0.1620    -4.5430 ca         1 1IS       0.115400
     20 C20          8.0360    -0.8150    -4.7090 ca         1 1IS      -0.089000
     21 C21          8.6660    -0.9270    -5.9390 ca         1 1IS      -0.124000
     22 C22          8.3240    -0.0900    -7.0110 ca         1 1IS      -0.133000
     23 C23          7.3410     0.8800    -6.8680 ca         1 1IS      -0.084000
     24 C24          6.6920     1.0160    -5.6430 ca         1 1IS      -0.092100
     25 S25          5.4770     2.0980    -5.1800 ss         1 1IS      -0.093100
     26 H01         -1.1080     0.8960     2.8280 h1         1 1IS       0.058700
     27 H01A        -1.8380     0.5950     1.1600 h1         1 1IS       0.058700
     28 H01B        -1.1420    -0.8060     2.1380 h1         1 1IS       0.058700
     29 H06          3.0610    -1.2180     5.3470 ha         1 1IS       0.152000
     30 H07          5.5770    -1.1620     5.1460 ha         1 1IS       0.144000
     31 H08          6.6470    -0.2970     3.0530 h4         1 1IS       0.025100
     32 H12          1.6900     1.2200    -0.4890 h1         1 1IS       0.085700
     33 H13          4.1080    -0.6920    -0.6200 hc         1 1IS       0.072950
     34 H13A         3.0130    -0.1510    -1.9640 hc         1 1IS       0.072950
     35 H14          5.5590     1.2010    -0.8970 h1         1 1IS       0.111700
     36 H15          4.2580     2.5170     0.6300 hc         1 1IS       0.072950
     37 H15A         3.1580     3.1200    -0.6830 hc         1 1IS       0.072950
     38 HN16         3.7410     2.2690    -2.9790 hn         1 1IS       0.405800
     39 H20          8.3070    -1.4710    -3.8690 ha         1 1IS       0.151000
     40 H21          9.4510    -1.6870    -6.0790 ha         1 1IS       0.135000
     41 H22          8.8430    -0.2050    -7.9740 ha         1 1IS       0.135000
     42 H23          7.0770     1.5350    -7.7110 ha         1 1IS       0.138000
@<TRIPOS>BOND
     1     1     2 1   
     2     1    26 1   
     3     1    27 1   
     4     1    28 1   
     5     2     3 1   
     6     3     4 2   
     7     3    11 1   
     8     4     5 1   
     9     5     6 ar  
    10     5    10 ar  
    11     6     7 ar  
    12     6    29 1   
    13     7     8 ar  
    14     7    30 1   
    15     8     9 ar  
    16     8    31 1   
    17     9    10 ar  
    18    10    11 1   
    19    11    12 1   
    20    12    13 1   
    21    12    15 1   
    22    12    32 1   
    23    13    14 1   
    24    13    33 1   
    25    13    34 1   
    26    14    15 1   
    27    14    16 1   
    28    14    35 1   
    29    15    36 1   
    30    15    37 1   
    31    16    17 1   
    32    16    38 1   
    33    17    18 2   
    34    17    25 1   
    35    18    19 1   
    36    19    20 ar  
    37    19    24 ar  
    38    20    21 ar  
    39    20    39 1   
    40    21    22 ar  
    41    21    40 1   
    42    22    23 ar  
    43    22    41 1   
    44    23    24 ar  
    45    23    42 1   
    46    24    25 1   
@<TRIPOS>SUBSTRUCTURE
     1 1IS         1 TEMP              0 ****  ****    0 ROOT
