@<TRIPOS>MOLECULE
1IT
   21    23     1     0     0
SMALL
bcc


@<TRIPOS>ATOM
      1 C13        -0.0410    0.0000   -0.0310 ca        1 1IT     -0.077000
      2 C1          1.3460   -0.0000   -0.0600 cp        1 1IT     -0.081000
      3 C12        -0.6810    0.0000    1.2130 ca        1 1IT     -0.152000
      4 C11         0.0440    0.0000    2.4070 ca        1 1IT     -0.105000
      5 C10         1.4430   -0.0000    2.4140 ca        1 1IT     -0.130000
      6 C9          2.0680   -0.0000    1.1770 ca        1 1IT      0.084100
      7 O8          3.4570   -0.0000    0.9680 os        1 1IT     -0.202200
      8 C7          3.6160   -0.0000   -0.4270 ca        1 1IT      0.084100
      9 C2          2.3540   -0.0000   -1.1050 cp        1 1IT     -0.081000
     10 C6          4.8310   -0.0000   -1.0960 ca        1 1IT     -0.130000
     11 C5          4.7740    0.0000   -2.4940 ca        1 1IT     -0.105000
     12 C4          3.5540    0.0000   -3.1760 ca        1 1IT     -0.152000
     13 C3          2.3340   -0.0000   -2.4930 ca        1 1IT     -0.077000
     14 H13        -0.6240    0.0000   -0.9630 ha        1 1IT      0.140000
     15 H12        -1.7810    0.0000    1.2500 ha        1 1IT      0.135000
     16 H11        -0.4940    0.0000    3.3670 ha        1 1IT      0.136000
     17 H10         2.0180   -0.0000    3.3490 ha        1 1IT      0.153000
     18 H6          5.7850   -0.0000   -0.5550 ha        1 1IT      0.153000
     19 H3          1.3830   -0.0000   -3.0420 ha        1 1IT      0.140000
     20 H5          5.7140    0.0000   -3.0660 ha        1 1IT      0.136000
     21 H4          3.5530    0.0000   -4.2760 ha        1 1IT      0.135000
@<TRIPOS>BOND
     1    1    2 ar  
     2    1    3 ar  
     3    1   14 1   
     4    2    6 ar  
     5    2    9 1   
     6    3    4 ar  
     7    3   15 1   
     8    4    5 ar  
     9    4   16 1   
    10    5    6 ar  
    11    5   17 1   
    12    6    7 1   
    13    7    8 1   
    14    8    9 ar  
    15    8   10 ar  
    16    9   13 ar  
    17   10   11 ar  
    18   10   18 1   
    19   11   12 ar  
    20   11   20 1   
    21   12   13 ar  
    22   12   21 1   
    23   13   19 1   
@<TRIPOS>SUBSTRUCTURE
     1 1IT         1 TEMP              0 ****  ****    0 ROOT
