@<TRIPOS>MOLECULE
molecule
   63    64     1     0     0
SMALL
bcc


@<TRIPOS>ATOM
      1 NAS          0.0000     0.0000     0.0000 nc         1 1IU      -0.437000
      2 NAR          1.2880     0.0000     0.0000 nc         1 1IU       0.000000
      3 NAW          1.7160     0.0000     1.2150 nd         1 1IU      -0.176800
      4 NAT          0.7020     0.0000     2.0120 na         1 1IU      -0.093400
      5 CBB         -0.4040    -0.0000     1.2470 cd         1 1IU       0.302800
      6 CAP         -1.8330     0.0000     1.7290 c3         1 1IU      -0.112700
      7 CBE         -2.5800     1.1820     1.1090 c3         1 1IU       0.033500
      8 NAD         -2.6620     0.9990    -0.3470 nz         1 1IU      -0.790600
      9 CAZ         -3.9710     1.2540     1.6840 c          1 1IU       0.632100
     10 OAG         -4.9100     0.8140     1.0570 o          1 1IU      -0.599100
     11 NAV         -4.1700     1.8080     2.8970 ns         1 1IU      -0.477900
     12 CBF         -5.5220     1.8790     3.4570 c3         1 1IU      -0.057500
     13 CAO         -5.4890     1.4490     4.9240 c3         1 1IU      -0.045100
     14 CBA         -5.1030    -0.0050     5.0130 ca         1 1IU      -0.069300
     15 CAM         -3.7840    -0.3580     5.2340 ca         1 1IU      -0.135000
     16 CAK         -3.4300    -1.6910     5.3160 ca         1 1IU      -0.129000
     17 CAJ         -4.3920    -2.6730     5.1760 ca         1 1IU      -0.132000
     18 CAL         -5.7110    -2.3200     4.9540 ca         1 1IU      -0.129000
     19 CAN         -6.0660    -0.9870     4.8770 ca         1 1IU      -0.135000
     20 PBG         -6.1390     3.5900     3.3390 p5         1 1IU       0.967400
     21 OAI         -6.2690     3.9710     1.9140 o          1 1IU      -0.783000
     22 OAH         -5.1050     4.5860     4.0680 o          1 1IU      -0.783000
     23 CAQ         -7.7690     3.7050     4.1490 c3         1 1IU      -0.255600
     24 CBC         -8.3150     5.1270     3.9970 c3         1 1IU      -0.092700
     25 CAA         -8.8100     5.3320     2.5630 c3         1 1IU      -0.091100
     26 CAY         -9.4570     5.3310     4.9570 c          1 1IU       0.671100
     27 OAF         -9.8020     4.4290     5.6910 o          1 1IU      -0.600100
     28 N          -10.0980     6.5160     5.0000 ns         1 1IU      -0.593900
     29 CA         -11.2100     6.7150     5.9340 c3         1 1IU       0.047700
     30 CB         -10.6600     7.1280     7.3000 c3         1 1IU      -0.119100
     31 C          -12.1180     7.7970     5.4100 c          1 1IU       0.469100
     32 O          -11.8630     8.3470     4.3600 o          1 1IU      -0.396100
     33 NAC        -13.2150     8.1520     6.1080 nz         1 1IU      -0.684400
     34 HAT          0.7330     0.0000     3.0120 hn         1 1IU       0.360700
     35 HAP1        -1.8490     0.0890     2.8080 hc         1 1IU       0.107200
     36 HAP2        -2.3130    -0.9250     1.4350 hc         1 1IU       0.107200
     37 HBE         -2.0500     2.1000     1.3290 hx         1 1IU       0.127700
     38 HAD1        -2.6480     0.0220    -0.5620 hn         1 1IU       0.467467
     39 HAD2        -1.8820     1.4480    -0.7840 hn         1 1IU       0.467467
     40 HAV         -3.3910     2.1490     3.4250 hn         1 1IU       0.330500
     41 HBF         -6.1780     1.2190     2.9010 h1         1 1IU       0.098700
     42 HAO1        -6.4700     1.5890     5.3630 hc         1 1IU       0.070700
     43 HAO2        -4.7640     2.0490     5.4610 hc         1 1IU       0.070700
     44 HAM         -3.0400     0.4110     5.4020 ha         1 1IU       0.128000
     45 HAN         -7.1090    -0.7610     4.6880 ha         1 1IU       0.128000
     46 HAK         -2.3960    -1.9670     5.4870 ha         1 1IU       0.128000
     47 HAJ         -4.1090    -3.7180     5.2110 ha         1 1IU       0.133000
     48 HAL         -6.4610    -3.0890     4.8120 ha         1 1IU       0.128000
     49 HAQ1        -7.6660     3.4690     5.2010 hc         1 1IU       0.064200
     50 HAQ2        -8.4530     3.0040     3.6870 hc         1 1IU       0.064200
     51 HBC         -7.5290     5.8400     4.2130 hc         1 1IU       0.101700
     52 HAA1        -8.5550     4.4650     1.9650 hc         1 1IU       0.049700
     53 HAA2        -8.3400     6.2120     2.1410 hc         1 1IU       0.049700
     54 HAA3        -9.8850     5.4630     2.5680 hc         1 1IU       0.049700
     55 H           -9.8300     7.2530     4.3780 hn         1 1IU       0.344500
     56 HA         -11.7680     5.7910     6.0330 h1         1 1IU       0.116700
     57 HB1C        -9.6270     6.8110     7.3850 hc         1 1IU       0.065700
     58 HB2C       -10.7170     8.2050     7.4020 hc         1 1IU       0.065700
     59 HB3C       -11.2460     6.6600     8.0820 hc         1 1IU       0.065700
     60 HAC1       -13.9520     8.3900     5.4730 hn         1 1IU       0.478467
     61 HAC2       -13.5060     7.3880     6.6850 hn         1 1IU       0.478467
     62 HAD3        -3.5160     1.3950    -0.6850 hn         1 1IU       0.467467
     63 HAC3       -12.9970     8.9300     6.6990 hn         1 1IU       0.478467
@<TRIPOS>BOND
     1     1     2 1   
     2     1     5 2   
     3     2     3 2   
     4     3     4 1   
     5     4     5 1   
     6     5     6 1   
     7     6     7 1   
     8     7     8 1   
     9     7     9 1   
    10     9    10 2   
    11     9    11 1   
    12    11    12 1   
    13    12    13 1   
    14    13    14 1   
    15    14    15 ar  
    16    14    19 ar  
    17    15    16 ar  
    18    16    17 ar  
    19    17    18 ar  
    20    18    19 ar  
    21    20    12 1   
    22    20    21 1   
    23    20    22 1   
    24    20    23 1   
    25    23    24 1   
    26    24    25 1   
    27    24    26 1   
    28    26    27 2   
    29    26    28 1   
    30    28    29 1   
    31    29    30 1   
    32    29    31 1   
    33    31    32 2   
    34    31    33 1   
    35     4    34 1   
    36     6    35 1   
    37     6    36 1   
    38     7    37 1   
    39     8    38 1   
    40     8    39 1   
    41    11    40 1   
    42    12    41 1   
    43    13    42 1   
    44    13    43 1   
    45    15    44 1   
    46    19    45 1   
    47    16    46 1   
    48    17    47 1   
    49    18    48 1   
    50    23    49 1   
    51    23    50 1   
    52    24    51 1   
    53    25    52 1   
    54    25    53 1   
    55    25    54 1   
    56    28    55 1   
    57    29    56 1   
    58    30    57 1   
    59    30    58 1   
    60    30    59 1   
    61    33    60 1   
    62    33    61 1   
    63    62     8 1   
    64    63    33 1   
@<TRIPOS>SUBSTRUCTURE
     1 1IU         1 TEMP              0 ****  ****    0 ROOT
