@<TRIPOS>MOLECULE
1IU
   65    66     1     0     0
SMALL
bcc


@<TRIPOS>ATOM
      1 NAS         -0.5760    -1.7000     1.6770 nc         1 1IU      -0.459000
      2 NAR          0.5020    -2.2020     1.0980 nc         1 1IU       0.024000
      3 NAW          1.5150    -1.4140     1.2110 nd         1 1IU      -0.101800
      4 NAT          1.1290    -0.3250     1.8880 na         1 1IU      -0.116400
      5 CBB         -0.2270    -0.4800     2.2080 cd         1 1IU       0.308800
      6 CAP         -1.1070     0.4440     2.9610 c3         1 1IU      -0.118700
      7 CBE         -2.5930     0.0930     2.7170 c3         1 1IU       0.099500
      8 NAD         -2.9600    -1.2800     3.1790 nz         1 1IU      -0.854600
      9 CAZ         -3.4390     1.1340     3.4720 c          1 1IU       0.521100
     10 OAG         -3.4420     1.2700     4.6840 o          1 1IU      -0.355100
     11 NAV         -4.3290     2.0270     2.6500 ny         1 1IU      -0.624800
     12 CBF         -5.7730     1.9540     3.0210 c3         1 1IU      -0.169700
     13 CAO         -6.5210     3.2290     2.5990 c3         1 1IU      -0.047100
     14 CBA         -5.8150     4.4680     3.0120 ca         1 1IU      -0.188300
     15 CAM         -4.9920     5.1410     2.0960 ca         1 1IU      -0.132000
     16 CAK         -4.3760     6.3370     2.4590 ca         1 1IU      -0.105500
     17 CAJ         -4.5750     6.8690     3.7360 ca         1 1IU      -0.074000
     18 CAL         -5.3930     6.2010     4.6490 ca         1 1IU      -0.105500
     19 CAN         -6.0130     5.0050     4.2900 ca         1 1IU      -0.132000
     20 PBG         -6.5430     0.6370     2.2570 p5         1 1IU       1.567100
     21 OAI         -5.6200    -0.4900     2.4710 o          1 1IU      -0.939300
     22 OAH         -6.3580     1.0520     0.7300 oh         1 1IU      -0.830400
     23 CAQ         -8.1030     0.5770     2.6660 c3         1 1IU      -0.509600
     24 CBC         -8.6200    -0.8460     2.8440 c3         1 1IU      -0.094700
     25 CAA         -9.0270    -1.1090     4.2850 c3         1 1IU      -0.113100
     26 CAY         -9.8090    -1.1230     1.9150 c          1 1IU       0.673100
     27 OAF        -10.2290    -0.2740     1.0950 o          1 1IU      -0.661100
     28 N          -10.4200    -2.3550     1.9820 ns         1 1IU      -0.550900
     29 CA         -11.4500    -2.7410     1.0510 c3         1 1IU       0.075700
     30 CB         -11.7990    -4.2290     1.1130 c3         1 1IU      -0.129100
     31 C          -12.7540    -1.9600     1.3420 c          1 1IU       0.502100
     32 O          -13.5450    -2.1460     2.2460 o          1 1IU      -0.358100
     33 NAC        -13.0580    -0.8170     0.4080 nz         1 1IU      -0.761400
     34 HAT          1.7630     0.4170     2.1120 hn         1 1IU       0.373700
     35 HAP1        -0.9350     1.5030     2.6200 hc         1 1IU       0.119200
     36 HAP2        -0.8640     0.3930     4.0610 hc         1 1IU       0.119200
     37 HBE         -2.8000     0.1160     1.6010 hx         1 1IU       0.149700
     38 HAD1        -2.3950    -1.9760     2.6430 hn         1 1IU       0.504133
     39 HAD2        -3.9670    -1.4660     3.0020 hn         1 1IU       0.504133
     40 HAV         -4.2510     1.8010     1.6480 hn         1 1IU       0.489300
     41 HBF         -5.8170     1.9040     4.1520 hx         1 1IU       0.161700
     42 HAO1        -6.6620     3.2140     1.4810 hc         1 1IU       0.096700
     43 HAO2        -7.5350     3.1850     3.0810 hc         1 1IU       0.096700
     44 HAM         -4.8830     4.7660     1.0670 ha         1 1IU       0.135500
     45 HAN         -6.6770     4.5000     5.0080 ha         1 1IU       0.135500
     46 HAK         -3.7500     6.8790     1.7290 ha         1 1IU       0.172500
     47 HAJ         -4.1000     7.8260     4.0150 ha         1 1IU       0.179000
     48 HAL         -5.5640     6.6300     5.6520 ha         1 1IU       0.172500
     49 HAQ1        -8.3570     1.1480     3.6070 hc         1 1IU       0.171700
     50 HAQ2        -8.7600     1.1000     1.8970 hc         1 1IU       0.171700
     51 HBC         -7.7990    -1.5720     2.5610 hc         1 1IU       0.095700
     52 HAA1        -8.2160    -0.7970     4.9880 hc         1 1IU       0.071033
     53 HAA2        -9.9530    -0.5410     4.5470 hc         1 1IU       0.071033
     54 HAA3        -9.2110    -2.1970     4.4580 hc         1 1IU       0.071033
     55 H          -10.1740    -3.0120     2.6910 hn         1 1IU       0.359500
     56 HA         -11.0970    -2.4830     0.0040 h1         1 1IU       0.097700
     57 HB1C       -12.2150    -4.5100     2.1120 hc         1 1IU       0.094367
     58 HB2C       -12.5630    -4.4610     0.3300 hc         1 1IU       0.094367
     59 HB3C       -10.8890    -4.8460     0.9080 hc         1 1IU       0.094367
     60 HAC1       -13.8740    -0.2850     0.7410 hn         1 1IU       0.481133
     61 HAC2       -12.2360    -0.1950     0.3570 hn         1 1IU       0.481133
     62 HAD3        -2.7590    -1.3930     4.1780 hn         1 1IU       0.504133
     63 HAC3       -13.2640    -1.1750    -0.5310 hn         1 1IU       0.481133
     64 HAV2        -4.0240     3.0220     2.7900 hn         1 1IU       0.489300
     65 H2          -6.4080     0.4180     0.0160 ho         1 1IU       0.524000
@<TRIPOS>BOND
     1     1     2 1   
     2     1     5 2   
     3     2     3 2   
     4     3     4 1   
     5     4     5 1   
     6     4    34 1   
     7     5     6 1   
     8     6     7 1   
     9     6    35 1   
    10     6    36 1   
    11     7     8 1   
    12     7     9 1   
    13     7    37 1   
    14     8    38 1   
    15     8    39 1   
    16     8    62 1   
    17     9    10 2   
    18     9    11 1   
    19    11    12 1   
    20    11    40 1   
    21    11    64 1   
    22    12    13 1   
    23    12    20 1   
    24    12    41 1   
    25    13    14 1   
    26    13    42 1   
    27    13    43 1   
    28    14    15 ar  
    29    14    19 ar  
    30    15    16 ar  
    31    15    44 1   
    32    16    17 ar  
    33    16    46 1   
    34    17    18 ar  
    35    17    47 1   
    36    18    19 ar  
    37    18    48 1   
    38    19    45 1   
    39    20    21 2   
    40    20    22 1   
    41    20    23 1   
    42    22    65 1   
    43    23    24 1   
    44    23    49 1   
    45    23    50 1   
    46    24    25 1   
    47    24    26 1   
    48    24    51 1   
    49    25    52 1   
    50    25    53 1   
    51    25    54 1   
    52    26    27 2   
    53    26    28 1   
    54    28    29 1   
    55    28    55 1   
    56    29    30 1   
    57    29    31 1   
    58    29    56 1   
    59    30    57 1   
    60    30    58 1   
    61    30    59 1   
    62    31    32 2   
    63    31    33 1   
    64    33    60 1   
    65    33    61 1   
    66    33    63 1   
@<TRIPOS>SUBSTRUCTURE
     1 1IU         1 TEMP              0 ****  ****    0 ROOT
