@<TRIPOS>MOLECULE
1J1
   36    36     1     0     0
SMALL
bcc


@<TRIPOS>ATOM
      1 C4           0.0000     0.0000     0.0000 c3         1 1J1      -0.039400
      2 C5           1.5300     0.0000     0.0000 c3         1 1J1      -0.036400
      3 C6           2.0390     0.0000     1.4420 c3         1 1J1       0.053000
      4 C10          4.1790     0.0020     2.6090 c          1 1J1       0.575100
      5 C13          7.4610     1.4060     3.3600 c3         1 1J1      -0.095700
      6 C1          -2.5420     0.1210    -2.8590 c          1 1J1       0.950600
      7 O9          -2.9140    -0.8610    -3.4550 o          1 1J1      -0.812800
      8 C2          -2.0400    -0.0010    -1.4430 c3         1 1J1      -0.186500
      9 N18         -2.5300    -1.2560    -0.8570 nz         1 1J1      -0.050600
     10 C3          -0.5100    -0.0010    -1.4430 c3         1 1J1      -0.028400
     11 N7           3.5050     0.0010     1.4430 ns         1 1J1      -0.209900
     12 O16          3.5720     0.0010     3.6590 o          1 1J1      -0.616100
     13 C11          5.6850     0.0010     2.6100 c3         1 1J1       0.022500
     14 C12          6.2230     1.4410     2.4300 c3         1 1J1      -0.084400
     15 C14          7.1450     0.2970     4.3380 c2         1 1J1       0.396200
     16 N17          6.1950    -0.4370     3.9150 n2         1 1J1      -0.477900
     17 H1          -0.3610    -0.8840     0.5110 hc         1 1J1       0.008200
     18 H2          -0.3610     0.8850     0.5100 hc         1 1J1       0.008200
     19 H3           1.8910    -0.8850    -0.5110 hc         1 1J1       0.025200
     20 H4           1.8910     0.8850    -0.5110 hc         1 1J1       0.025200
     21 H5           1.6790    -0.8850     1.9520 h1         1 1J1       0.025200
     22 H6           1.6780     0.8840     1.9520 h1         1 1J1       0.025200
     23 H7           8.3530     1.1690     2.7940 hc         1 1J1       0.030700
     24 H8           7.5710     2.3500     3.8790 hc         1 1J1       0.030700
     25 H10         -2.4010     0.8360    -0.8580 hx         1 1J1       0.087700
     26 H11         -2.8900    -0.5200    -0.2810 hn         1 1J1       0.250467
     27 H12         -3.2190    -1.7310    -1.4050 hn         1 1J1       0.250467
     28 H14         -0.1480    -0.8860    -1.9530 hc         1 1J1       0.054700
     29 H15         -0.1490     0.8830    -1.9540 hc         1 1J1       0.054700
     30 H16          4.0050    -0.0160     0.5760 hn         1 1J1       0.174500
     31 H17          6.0670    -0.6410     1.8250 h1         1 1J1       0.039700
     32 H18          6.5090     0.9170     1.5260 hc         1 1J1       0.050200
     33 H19          5.5050     2.2520     2.4060 hc         1 1J1       0.050200
     34 H20          7.2700     0.4610     5.4020 h4         1 1J1       0.008800
     35 H183        -1.8250    -1.8130    -0.4160 hn         1 1J1       0.250467
     36 O8          -2.5950     1.3260    -3.4500 o          1 1J1      -0.812800
@<TRIPOS>BOND
     1     1     2 1   
     2     1    10 1   
     3     1    17 1   
     4     1    18 1   
     5     2     3 1   
     6     2    19 1   
     7     2    20 1   
     8     3    11 1   
     9     3    21 1   
    10     3    22 1   
    11     4    11 1   
    12     4    12 2   
    13     4    13 1   
    14     5    14 1   
    15     5    15 1   
    16     5    23 1   
    17     5    24 1   
    18     6     7 1   
    19     6     8 1   
    20     6    36 1   
    21     8     9 1   
    22     8    10 1   
    23     8    25 1   
    24     9    26 1   
    25     9    27 1   
    26     9    35 1   
    27    10    28 1   
    28    10    29 1   
    29    11    30 1   
    30    13    14 1   
    31    13    16 1   
    32    13    31 1   
    33    14    32 1   
    34    14    33 1   
    35    15    16 2   
    36    15    34 1   
@<TRIPOS>SUBSTRUCTURE
     1 1J1         1 TEMP              0 ****  ****    0 ROOT
