@<TRIPOS>MOLECULE
1J1
   37    37     1     0     0
SMALL
bcc


@<TRIPOS>ATOM
      1 C4          -0.2700    -0.4740     1.1080 c3         1 1J1      -0.090400
      2 C5           1.1730    -0.9470     1.1210 c3         1 1J1      -0.111400
      3 C6           2.1850     0.1660     1.3670 c3         1 1J1       0.127800
      4 C10          3.6700     1.8570     0.3340 c          1 1J1       0.562100
      5 C13          7.2350     1.3290     0.2400 c3         1 1J1      -0.188700
      6 C1           0.1310     0.1920    -1.5400 c          1 1J1       0.901600
      7 O9           0.1120     1.4210    -1.2930 o          1 1J1      -0.793800
      8 C2          -1.1790    -0.6140    -1.2620 c3         1 1J1      -0.019500
      9 N18         -1.3430    -1.6290    -2.3530 nz         1 1J1      -0.829600
     10 C3          -1.1230    -1.2620     0.1260 c3         1 1J1      -0.081400
     11 N7           2.4690     0.9820     0.1490 ny         1 1J1      -0.685800
     12 O16          3.5450     2.8320     1.0610 o          1 1J1      -0.430100
     13 C11          4.9040     1.4460    -0.4490 c3         1 1J1       0.015500
     14 C12          6.1340     2.3380    -0.1090 c3         1 1J1      -0.101400
     15 C14          6.5220    -0.0040     0.1610 c2         1 1J1       0.460200
     16 N17          5.2720     0.0450    -0.1860 n2         1 1J1      -0.610900
     17 O8           1.1360    -0.4620    -1.9390 o          1 1J1      -0.793800
     18 H1          -0.7060    -0.6070     2.1360 hc         1 1J1       0.075200
     19 H2          -0.3350     0.6230     0.8730 hc         1 1J1       0.075200
     20 H3           1.4200    -1.4760     0.1580 hc         1 1J1       0.084200
     21 H4           1.3090    -1.6950     1.9500 hc         1 1J1       0.084200
     22 H5           1.8210     0.8660     2.1710 hx         1 1J1       0.099700
     23 H6           3.1590    -0.2980     1.6990 hx         1 1J1       0.099700
     24 H7           8.0810     1.3680    -0.4910 hc         1 1J1       0.093200
     25 H8           7.6510     1.4970     1.2640 hc         1 1J1       0.093200
     26 H10         -2.0550     0.0970    -1.3120 hx         1 1J1       0.118700
     27 H11         -1.7220    -1.1740    -3.1870 hn         1 1J1       0.458133
     28 H12         -0.4010    -1.9950    -2.5770 hn         1 1J1       0.458133
     29 H14         -2.1700    -1.3250     0.5270 hc         1 1J1       0.060700
     30 H15         -0.7270    -2.3120     0.0650 hc         1 1J1       0.060700
     31 H16          2.5910     0.3540    -0.6710 hn         1 1J1       0.498800
     32 H17          4.6460     1.5440    -1.5470 h1         1 1J1       0.122700
     33 H18          6.4120     2.9580    -0.9950 hc         1 1J1       0.086200
     34 H19          5.9190     3.0230     0.7470 hc         1 1J1       0.086200
     35 H20          7.0350    -0.9530     0.3770 h4         1 1J1       0.061800
     36 H183        -1.9550    -2.3910    -2.0640 hn         1 1J1       0.458133
     37 H72          1.6400     1.5790    -0.0630 hn         1 1J1       0.498800
@<TRIPOS>BOND
     1     1     2 1   
     2     1    10 1   
     3     1    18 1   
     4     1    19 1   
     5     2     3 1   
     6     2    20 1   
     7     2    21 1   
     8     3    11 1   
     9     3    22 1   
    10     3    23 1   
    11     4    11 1   
    12     4    12 2   
    13     4    13 1   
    14     5    14 1   
    15     5    15 1   
    16     5    24 1   
    17     5    25 1   
    18     6     7 1   
    19     6     8 1   
    20     6    17 1   
    21     8     9 1   
    22     8    10 1   
    23     8    26 1   
    24     9    27 1   
    25     9    28 1   
    26     9    36 1   
    27    10    29 1   
    28    10    30 1   
    29    11    31 1   
    30    11    37 1   
    31    13    14 1   
    32    13    16 1   
    33    13    32 1   
    34    14    33 1   
    35    14    34 1   
    36    15    16 2   
    37    15    35 1   
@<TRIPOS>SUBSTRUCTURE
     1 1J1         1 TEMP              0 ****  ****    0 ROOT
