@<TRIPOS>MOLECULE
1J2
   64    68     1     0     0
SMALL
bcc


@<TRIPOS>ATOM
      1 N1           0.0300    -0.0320    -0.1530 nb         1 1J2      -0.763000
      2 C2           1.4220    -0.0680    -0.0480 ca         1 1J2       0.893900
      3 N3           2.1210    -0.1060     1.1460 nb         1 1J2      -0.783000
      4 C4           1.3830    -0.1720     2.2940 ca         1 1J2       0.594800
      5 C5          -0.0430    -0.1790     2.2630 ca         1 1J2      -0.448600
      6 C6          -0.6450    -0.0990     0.9990 ca         1 1J2       0.481200
      7 N7           2.0520    -0.2340     3.5280 na         1 1J2      -0.122200
      8 C8           2.4330     0.1940     5.7500 cc         1 1J2      -0.151200
      9 C9           1.4870     0.2270     4.7430 cd         1 1J2      -0.111100
     10 C10          3.6720    -0.2860     5.1700 ca         1 1J2      -0.106800
     11 C11          3.4110    -0.5410     3.7730 ca         1 1J2      -0.000200
     12 C12          4.4050    -1.0670     2.9390 ca         1 1J2      -0.134000
     13 C13          5.6470    -1.3220     3.5050 ca         1 1J2      -0.102000
     14 C14          5.9260    -1.0630     4.8510 ca         1 1J2      -0.194000
     15 C15          4.9490    -0.5400     5.7160 ca         1 1J2       0.161600
     16 N16          5.1650    -0.3200     7.1040 nh         1 1J2      -0.630000
     17 N17          2.1400    -0.1440    -1.2530 nu         1 1J2      -0.819900
     18 C18          3.5450     0.2190    -1.3150 c3         1 1J2       0.208500
     19 C19          3.8100     1.7270    -1.1550 c3         1 1J2      -0.092900
     20 C20          5.2940     2.0130    -1.1710 c3         1 1J2      -0.092900
     21 C21          5.9280     1.5100    -2.4640 c3         1 1J2       0.139100
     22 C22          5.6440     0.0240    -2.6660 c3         1 1J2      -0.092900
     23 C23          4.1580    -0.2550    -2.6470 c3         1 1J2      -0.092900
     24 O24          7.3240     1.7510    -2.3500 oh         1 1J2      -0.597800
     25 C25          6.2760    -1.0510     7.6910 c3         1 1J2       0.190800
     26 C26          6.3030    -0.9300     9.2140 c3         1 1J2      -0.057900
     27 C27          6.3300     0.5290     9.6460 c3         1 1J2      -0.283900
     28 C28          5.1560     1.2580     9.0190 c3         1 1J2      -0.057900
     29 C29          5.1370     1.0820     7.5020 c3         1 1J2       0.190800
     30 S30          6.3450     0.6190    11.3680 s6         1 1J2       1.326000
     31 O31          5.0990     0.2460    11.8890 o          1 1J2      -0.649800
     32 O32          7.4760    -0.0570    11.8470 o          1 1J2      -0.649800
     33 C33          6.5620     2.2830    11.5760 c3         1 1J2      -0.368300
     34 H1          -0.6510    -0.2590     3.1690 ha         1 1J2       0.158000
     35 H2          -1.7480    -0.0840     0.9040 h4         1 1J2       0.029100
     36 H3           2.2820     0.4500     6.7950 ha         1 1J2       0.165000
     37 H4           0.4430     0.5420     4.7830 h4         1 1J2       0.171000
     38 H5           4.2240    -1.2800     1.8770 ha         1 1J2       0.158000
     39 H6           6.4460    -1.7380     2.8720 ha         1 1J2       0.132000
     40 H7           6.9370    -1.2860     5.2230 ha         1 1J2       0.132000
     41 H8           1.6140     0.1110    -2.0640 hn         1 1J2       0.426800
     42 H9           4.0820    -0.3220    -0.4780 h1         1 1J2       0.087700
     43 H10          3.3790     2.0860    -0.1840 hc         1 1J2       0.050450
     44 H11          3.3050     2.2910    -1.9830 hc         1 1J2       0.050450
     45 H12          5.7960     1.5180    -0.2990 hc         1 1J2       0.055700
     46 H13          5.4730     3.1150    -1.0800 hc         1 1J2       0.055700
     47 H14          5.5230     2.0920    -3.3410 h1         1 1J2       0.031700
     48 H15          6.0740    -0.3100    -3.6460 hc         1 1J2       0.055700
     49 H16          6.1570    -0.5590    -1.8570 hc         1 1J2       0.055700
     50 H17          3.6640     0.2730    -3.5040 hc         1 1J2       0.050450
     51 H18          3.9850    -1.3550    -2.7770 hc         1 1J2       0.050450
     52 H19          7.7350     1.3860    -3.1420 ho         1 1J2       0.399000
     53 H20          7.2710    -0.6910     7.2940 h1         1 1J2       0.042450
     54 H21          6.1620    -2.1370     7.4140 h1         1 1J2       0.042450
     55 H22          7.2180    -1.4550     9.5950 hc         1 1J2       0.065950
     56 H23          5.3970    -1.4310     9.6500 hc         1 1J2       0.065950
     57 H24          7.2750     0.9790     9.2290 h1         1 1J2       0.107700
     58 H25          4.1990     0.8690     9.4610 hc         1 1J2       0.065950
     59 H26          5.2250     2.3560     9.2380 hc         1 1J2       0.065950
     60 H27          4.1950     1.5440     7.0920 h1         1 1J2       0.042450
     61 H28          6.0160     1.6450     7.0670 h1         1 1J2       0.042450
     62 H29          7.0190     2.5050    12.5750 h1         1 1J2       0.117700
     63 H30          5.5980     2.8500    11.5420 h1         1 1J2       0.117700
     64 H31          7.2370     2.7570    10.8220 h1         1 1J2       0.117700
@<TRIPOS>BOND
     1     1     2 ar  
     2     1     6 ar  
     3     2     3 ar  
     4     2    17 1   
     5     3     4 ar  
     6     4     5 ar  
     7     4     7 1   
     8     5     6 ar  
     9     5    34 1   
    10     6    35 1   
    11     7     9 1   
    12     7    11 1   
    13     8     9 2   
    14     8    10 1   
    15     8    36 1   
    16     9    37 1   
    17    10    11 ar  
    18    10    15 ar  
    19    11    12 ar  
    20    12    13 ar  
    21    12    38 1   
    22    13    14 ar  
    23    13    39 1   
    24    14    15 ar  
    25    14    40 1   
    26    15    16 1   
    27    16    25 1   
    28    16    29 1   
    29    17    18 1   
    30    17    41 1   
    31    18    19 1   
    32    18    23 1   
    33    18    42 1   
    34    19    20 1   
    35    19    43 1   
    36    19    44 1   
    37    20    21 1   
    38    20    45 1   
    39    20    46 1   
    40    21    22 1   
    41    21    24 1   
    42    21    47 1   
    43    22    23 1   
    44    22    48 1   
    45    22    49 1   
    46    23    50 1   
    47    23    51 1   
    48    24    52 1   
    49    25    26 1   
    50    25    53 1   
    51    25    54 1   
    52    26    27 1   
    53    26    55 1   
    54    26    56 1   
    55    27    28 1   
    56    27    30 1   
    57    27    57 1   
    58    28    29 1   
    59    28    58 1   
    60    28    59 1   
    61    29    60 1   
    62    29    61 1   
    63    30    31 2   
    64    30    32 2   
    65    30    33 1   
    66    33    62 1   
    67    33    63 1   
    68    33    64 1   
@<TRIPOS>SUBSTRUCTURE
     1 1J2         1 TEMP              0 ****  ****    0 ROOT
