@<TRIPOS>MOLECULE
1J2
   64    68     1     0     0
SMALL
bcc


@<TRIPOS>ATOM
      1 N1           0.0000     0.0000     0.0000 nb         1 1J2      -0.721000
      2 C2           1.3250     0.0000     0.0000 ca         1 1J2       0.749900
      3 N3           2.0190     0.0000     1.1290 nb         1 1J2      -0.725000
      4 C4           1.4000     0.0020     2.3040 ca         1 1J2       0.406800
      5 C5           0.0050     0.0030     2.3350 ca         1 1J2      -0.458600
      6 C6          -0.6810     0.0020     1.1360 ca         1 1J2       0.523200
      7 N7           2.1330     0.0020     3.4880 na         1 1J2       0.420800
      8 C8           2.5750     0.0030     5.6650 cc         1 1J2      -0.111200
      9 C9           1.5940     0.0030     4.7500 cd         1 1J2      -0.280100
     10 C10          3.8450    -0.0030     4.9330 ca         1 1J2      -0.083800
     11 C11          3.5110    -0.0050     3.5680 ca         1 1J2      -0.202200
     12 C12          4.5240    -0.0090     2.6150 ca         1 1J2      -0.082000
     13 C13          5.8450    -0.0110     3.0100 ca         1 1J2      -0.087000
     14 C14          6.1810    -0.0100     4.3550 ca         1 1J2      -0.158000
     15 C15          5.1920    -0.0050     5.3230 ca         1 1J2       0.053600
     16 N16          5.5310    -0.0030     6.6760 nh         1 1J2      -0.393000
     17 N17          2.0000    -0.0020    -1.2070 nu         1 1J2      -0.473900
     18 C18          1.2510    -0.0030    -2.4660 c3         1 1J2       0.129500
     19 C19          2.1130    -0.6140    -3.5720 c3         1 1J2      -0.035400
     20 C20          1.3300    -0.6160    -4.8870 c3         1 1J2      -0.037900
     21 C21          0.9610     0.8210    -5.2620 c3         1 1J2       0.189100
     22 C22          0.0990     1.4320    -4.1560 c3         1 1J2      -0.037900
     23 C23          0.8810     1.4330    -2.8420 c3         1 1J2      -0.035400
     24 O24          0.2300     0.8200    -6.4900 oh         1 1J2      -0.583800
     25 C25          6.2360    -1.2390     7.0430 c3         1 1J2       0.150800
     26 C26          6.4630    -1.2670     8.5570 c3         1 1J2      -0.000400
     27 C27          7.2900    -0.0450     8.9660 c3         1 1J2      -0.032900
     28 C28          6.5590     1.2260     8.5290 c3         1 1J2      -0.000400
     29 C29          6.3280     1.1830     7.0170 c3         1 1J2       0.150800
     30 S30          7.5030    -0.0330    10.7670 s6         1 1J2       0.796000
     31 O31          6.2200     0.0380    11.3750 o          1 1J2      -0.584800
     32 O32          8.3820    -1.0900    11.1260 o          1 1J2      -0.584800
     33 C33          8.3570     1.5450    11.0340 c3         1 1J2       0.007700
     34 H1          -0.5280     0.0040     3.2780 ha         1 1J2       0.135000
     35 H2          -1.7640     0.0020     1.1250 h4         1 1J2      -0.017900
     36 H3           2.4520     0.0030     6.7410 ha         1 1J2       0.138000
     37 H4           0.5340     0.0040     4.9750 h4         1 1J2       0.149000
     38 H5           4.2750    -0.0100     1.5610 ha         1 1J2       0.130000
     39 H6           6.6280    -0.0150     2.2620 ha         1 1J2       0.101000
     40 H7           7.2230    -0.0120     4.6490 ha         1 1J2       0.109000
     41 H8           3.0010    -0.0240    -1.2200 hn         1 1J2       0.299800
     42 H9           0.3460    -0.5880    -2.3520 h1         1 1J2       0.062700
     43 H10          3.0150    -0.0260    -3.6920 hc         1 1J2       0.020700
     44 H11          2.3720    -1.6320    -3.3060 hc         1 1J2       0.020700
     45 H12          0.4250    -1.2000    -4.7660 hc         1 1J2       0.026200
     46 H13          1.9420    -1.0470    -5.6700 hc         1 1J2       0.026200
     47 H14          1.8660     1.4060    -5.3760 h1         1 1J2      -0.002300
     48 H15         -0.1590     2.4500    -4.4220 hc         1 1J2       0.026200
     49 H16         -0.8030     0.8450    -4.0370 hc         1 1J2       0.026200
     50 H17          1.7860     2.0170    -2.9620 hc         1 1J2       0.020700
     51 H18          0.2690     1.8640    -2.0590 hc         1 1J2       0.020700
     52 H19          0.6940     1.3300    -7.1330 ho         1 1J2       0.388000
     53 H20          5.6360    -2.0940     6.7540 h1         1 1J2       0.014950
     54 H21          7.1920    -1.2730     6.5350 h1         1 1J2       0.014950
     55 H22          5.5080    -1.2420     9.0660 hc         1 1J2       0.034200
     56 H23          6.9990    -2.1700     8.8240 hc         1 1J2       0.034200
     57 H24          8.2590    -0.0870     8.4820 h1         1 1J2       0.070700
     58 H25          7.1610     2.0920     8.7770 hc         1 1J2       0.034200
     59 H26          5.6040     1.2860     9.0370 hc         1 1J2       0.034200
     60 H27          7.2840     1.1320     6.5090 h1         1 1J2       0.014950
     61 H28          5.7960     2.0750     6.7080 h1         1 1J2       0.014950
     62 H29          9.0770     1.7050    10.2400 h1         1 1J2       0.061367
     63 H30          7.6340     2.3520    11.0330 h1         1 1J2       0.061367
     64 H31          8.8700     1.5210    11.9870 h1         1 1J2       0.061367
@<TRIPOS>BOND
     1     1     2 ar  
     2     1     6 ar  
     3     2     3 ar  
     4     2    17 1   
     5     3     4 ar  
     6     4     5 ar  
     7     4     7 1   
     8     5     6 ar  
     9     5    34 1   
    10     6    35 1   
    11     7     9 1   
    12     7    11 1   
    13     8     9 2   
    14     8    10 1   
    15     8    36 1   
    16     9    37 1   
    17    10    11 ar  
    18    10    15 ar  
    19    11    12 ar  
    20    12    13 ar  
    21    12    38 1   
    22    13    14 ar  
    23    13    39 1   
    24    14    15 ar  
    25    14    40 1   
    26    15    16 1   
    27    16    25 1   
    28    16    29 1   
    29    17    18 1   
    30    17    41 1   
    31    18    19 1   
    32    18    23 1   
    33    18    42 1   
    34    19    20 1   
    35    19    43 1   
    36    19    44 1   
    37    20    21 1   
    38    20    45 1   
    39    20    46 1   
    40    21    22 1   
    41    21    24 1   
    42    21    47 1   
    43    22    23 1   
    44    22    48 1   
    45    22    49 1   
    46    23    50 1   
    47    23    51 1   
    48    24    52 1   
    49    25    26 1   
    50    25    53 1   
    51    25    54 1   
    52    26    27 1   
    53    26    55 1   
    54    26    56 1   
    55    27    28 1   
    56    27    30 1   
    57    27    57 1   
    58    28    29 1   
    59    28    58 1   
    60    28    59 1   
    61    29    60 1   
    62    29    61 1   
    63    30    31 2   
    64    30    32 2   
    65    30    33 1   
    66    33    62 1   
    67    33    63 1   
    68    33    64 1   
@<TRIPOS>SUBSTRUCTURE
     1 1J2         1 TEMP              0 ****  ****    0 ROOT
