@<TRIPOS>MOLECULE
1J3
   78    82     1     0     0
SMALL
bcc


@<TRIPOS>ATOM
      1 C1          -0.8360     1.9040     0.3090 c3         1 1J3       0.112700
      2 O2           0.5870     1.9950     0.3310 os         1 1J3      -0.333900
      3 C3           1.2030     1.7750     1.5490 ca         1 1J3       0.048100
      4 C4           0.5280     1.7950     2.7540 ca         1 1J3      -0.089000
      5 C5           1.2240     1.5920     3.9700 ca         1 1J3      -0.245600
      6 C6           2.6020     1.3400     3.9300 ca         1 1J3      -0.041000
      7 C7           3.2880     1.3160     2.7280 ca         1 1J3      -0.188000
      8 C8           2.6350     1.5490     1.4900 ca         1 1J3       0.280600
      9 N9           3.2510     1.5360     0.2650 nu         1 1J3      -0.700300
     10 C10          4.6450     1.5410    -0.0080 ca         1 1J3       0.841900
     11 N11          5.0030     1.0720    -1.2630 nb         1 1J3      -0.693000
     12 C12          6.3030     1.1070    -1.5620 ca         1 1J3       0.427200
     13 C13          7.3130     1.5810    -0.6730 ca         1 1J3      -0.153000
     14 N14          8.6610     1.5490    -1.0390 n          1 1J3      -0.362000
     15 C15          9.1140     0.3940    -1.7840 c3         1 1J3       0.067300
     16 C16          9.6080     2.4760    -0.5840 c          1 1J3       0.698500
     17 O17         10.8170     2.2220    -0.6680 o          1 1J3      -0.571500
     18 C18          9.1520     3.8690    -0.0680 c3         1 1J3       0.168500
     19 F19         10.3040     4.6120     0.1790 f          1 1J3      -0.200300
     20 C20          8.3640     3.7750     1.2800 c3         1 1J3       0.157800
     21 N21          7.8290     2.4570     1.5630 nh         1 1J3      -0.732300
     22 C22          7.5460     2.1710     2.9660 c3         1 1J3       0.207500
     23 C23          8.8270     1.9650     3.8070 c3         1 1J3      -0.094900
     24 C24          8.4680     2.3520     5.2340 c3         1 1J3      -0.079900
     25 C25          7.1340     3.0860     5.2010 c3         1 1J3      -0.079900
     26 C26          6.7080     3.2040     3.7460 c3         1 1J3      -0.094900
     27 C27          6.8460     2.0340     0.6150 ca         1 1J3       0.625200
     28 N28          5.5190     2.0350     0.9280 nb         1 1J3      -0.747000
     29 C29          8.2890     4.5200    -1.1180 c2         1 1J3      -0.237200
     30 C30          8.6840     5.5290    -1.8890 c2         1 1J3      -0.150000
     31 C31          0.4300     1.6320     5.1720 c          1 1J3       0.610700
     32 O32         -0.7830     1.5760     5.3300 o          1 1J3      -0.463100
     33 N33          1.1920     1.8630     6.5070 ny         1 1J3      -0.467600
     34 N34          1.6760     0.6660     7.1030 n3         1 1J3      -0.493400
     35 C35          2.5000     0.9370     8.3070 c3         1 1J3       0.116800
     36 C36          3.0400    -0.3710     8.9230 c3         1 1J3       0.173800
     37 N37          1.9720    -1.3100     9.2230 n3         1 1J3      -0.740600
     38 C38          2.4340    -2.5020     9.8970 c3         1 1J3       0.154100
     39 C39          1.1650    -1.5900     8.0470 c3         1 1J3       0.173800
     40 C40          0.5980    -0.3030     7.4170 c3         1 1J3       0.116800
     41 H1          -1.1810     0.9360     0.7450 h1         1 1J3       0.058367
     42 H2          -1.2850     2.7710     0.8520 h1         1 1J3       0.058367
     43 H3          -1.0750     1.9580    -0.7850 h1         1 1J3       0.058367
     44 H4          -0.5610     1.9720     2.7870 ha         1 1J3       0.168000
     45 H5           3.1730     1.1190     4.8460 ha         1 1J3       0.142000
     46 H6           4.3680     1.0930     2.7550 ha         1 1J3       0.182000
     47 H7           2.6530     1.5380    -0.5430 hn         1 1J3       0.490800
     48 H8           6.5660     0.7220    -2.5680 h4         1 1J3       0.054100
     49 H9           8.5520    -0.5220    -1.4630 h1         1 1J3       0.060700
     50 H10          8.9440     0.5670    -2.8810 h1         1 1J3       0.060700
     51 H11         10.2120     0.2320    -1.6070 h1         1 1J3       0.060700
     52 H12          7.5570     4.5640     1.2550 h1         1 1J3       0.074200
     53 H13          9.0810     4.0420     2.1090 h1         1 1J3       0.074200
     54 H14          6.9840     1.1880     2.9860 h1         1 1J3       0.059700
     55 H15          9.1540     0.8980     3.7430 hc         1 1J3       0.055200
     56 H16          9.6780     2.5910     3.4380 hc         1 1J3       0.055200
     57 H17          9.2660     3.0030     5.6720 hc         1 1J3       0.042950
     58 H18          8.3950     1.4400     5.8790 hc         1 1J3       0.042950
     59 H19          7.2250     4.0980     5.6680 hc         1 1J3       0.042950
     60 H20          6.3670     2.5190     5.7860 hc         1 1J3       0.042950
     61 H21          5.6170     2.9950     3.6190 hc         1 1J3       0.055200
     62 H22          6.8970     4.2430     3.3750 hc         1 1J3       0.055200
     63 H23          7.2820     4.0820    -1.1990 ha         1 1J3       0.131000
     64 H24          8.0230     5.9770    -2.6440 ha         1 1J3       0.133500
     65 H25          9.6880     5.9730    -1.8190 ha         1 1J3       0.133500
     66 H26          2.0170     2.4450     6.3040 hn         1 1J3       0.442800
     67 H27          3.3890     1.5570     8.0000 h1         1 1J3       0.072200
     68 H28          1.9190     1.4970     9.0960 h1         1 1J3       0.072200
     69 H29          3.5510    -0.0950     9.8880 h1         1 1J3       0.064450
     70 H30          3.8140    -0.8080     8.2270 h1         1 1J3       0.064450
     71 H32          2.9660    -2.2000    10.8370 h1         1 1J3       0.050367
     72 H33          1.5420    -3.1250    10.1720 h1         1 1J3       0.050367
     73 H34          3.1310    -3.1230     9.2700 h1         1 1J3       0.050367
     74 H35          1.7380    -2.1610     7.2600 h1         1 1J3       0.064450
     75 H36          0.2840    -2.2170     8.3650 h1         1 1J3       0.064450
     76 H37         -0.1710     0.1410     8.1140 h1         1 1J3       0.072200
     77 H38          0.0870    -0.5890     6.4530 h1         1 1J3       0.072200
     78 H332         0.5580     2.3840     7.1370 hn         1 1J3       0.442800
@<TRIPOS>BOND
     1     1     2 1   
     2     1    41 1   
     3     1    42 1   
     4     1    43 1   
     5     2     3 1   
     6     3     4 ar  
     7     3     8 ar  
     8     4     5 ar  
     9     4    44 1   
    10     5     6 ar  
    11     5    31 1   
    12     6     7 ar  
    13     6    45 1   
    14     7     8 ar  
    15     7    46 1   
    16     8     9 1   
    17     9    10 1   
    18     9    47 1   
    19    10    11 ar  
    20    10    28 ar  
    21    11    12 ar  
    22    12    13 ar  
    23    12    48 1   
    24    13    14 1   
    25    13    27 ar  
    26    14    15 1   
    27    14    16 1   
    28    15    49 1   
    29    15    50 1   
    30    15    51 1   
    31    16    17 2   
    32    16    18 1   
    33    18    19 1   
    34    18    20 1   
    35    18    29 1   
    36    20    21 1   
    37    20    52 1   
    38    20    53 1   
    39    21    22 1   
    40    21    27 1   
    41    22    23 1   
    42    22    26 1   
    43    22    54 1   
    44    23    24 1   
    45    23    55 1   
    46    23    56 1   
    47    24    25 1   
    48    24    57 1   
    49    24    58 1   
    50    25    26 1   
    51    25    59 1   
    52    25    60 1   
    53    26    61 1   
    54    26    62 1   
    55    27    28 ar  
    56    29    30 2   
    57    29    63 1   
    58    30    64 1   
    59    30    65 1   
    60    31    32 2   
    61    31    33 1   
    62    33    34 1   
    63    33    66 1   
    64    33    78 1   
    65    34    35 1   
    66    34    40 1   
    67    35    36 1   
    68    35    67 1   
    69    35    68 1   
    70    36    37 1   
    71    36    69 1   
    72    36    70 1   
    73    37    38 1   
    74    37    39 1   
    75    38    71 1   
    76    38    72 1   
    77    38    73 1   
    78    39    40 1   
    79    39    74 1   
    80    39    75 1   
    81    40    76 1   
    82    40    77 1   
@<TRIPOS>SUBSTRUCTURE
     1 1J3         1 TEMP              0 ****  ****    0 ROOT
