@<TRIPOS>MOLECULE
1J3
   77    81     1     0     0
SMALL
bcc


@<TRIPOS>ATOM
      1 C1           0.0000     0.0000     0.0000 c3         1 1J3       0.247700
      2 O2           1.4290     0.0000     0.0000 os         1 1J3      -0.318900
      3 C3           2.0470     0.0000     1.2110 ca         1 1J3       0.103100
      4 C4           1.2960    -0.0060     2.3690 ca         1 1J3      -0.123000
      5 C5           1.9350    -0.0070     3.6130 ca         1 1J3      -0.139600
      6 C6           3.3300    -0.0020     3.6800 ca         1 1J3      -0.101000
      7 C7           4.0750     0.0040     2.5210 ca         1 1J3      -0.109000
      8 C8           3.4420     0.0000     1.2840 ca         1 1J3      -0.014400
      9 N9           4.1990     0.0000     0.1140 nu         1 1J3      -0.252300
     10 C10          5.4920    -0.5030     0.1240 ca         1 1J3       0.698900
     11 N11          5.9420    -1.0930     1.2200 nb         1 1J3      -0.679000
     12 C12          7.1740    -1.5840     1.2770 ca         1 1J3       0.493200
     13 C13          7.9860    -1.4720     0.1640 ca         1 1J3      -0.425000
     14 N14          9.3090    -1.9390     0.1760 n          1 1J3       0.016000
     15 C15          9.6250    -3.2910     0.6450 c3         1 1J3       0.069300
     16 C16         10.2830    -1.1100    -0.2580 c          1 1J3       0.599500
     17 O17         11.4310    -1.4950    -0.3250 o          1 1J3      -0.646500
     18 C18          9.9290     0.3000    -0.6540 c3         1 1J3       0.107500
     19 F19          9.0580     0.8410     0.2960 f          1 1J3      -0.221300
     20 C20          9.2550     0.3170    -2.0230 c3         1 1J3       0.132800
     21 N21          8.2620    -0.7570    -2.1210 nh         1 1J3      -0.482300
     22 C22          8.9030    -2.0420    -2.4290 c3         1 1J3       0.055500
     23 C23          7.8430    -3.1670    -2.5300 c3         1 1J3      -0.025400
     24 C24          8.5490    -4.2240    -3.4150 c3         1 1J3      -0.020400
     25 C25          9.3220    -3.3890    -4.4580 c3         1 1J3      -0.020400
     26 C26          9.5470    -2.0020    -3.8310 c3         1 1J3      -0.025400
     27 C27          7.4770    -0.8550    -0.9850 ca         1 1J3       0.567200
     28 N28          6.2360    -0.3860    -0.9670 nb         1 1J3      -0.633000
     29 C29         11.1850     1.1300    -0.7090 c2         1 1J3      -0.178200
     30 C30         11.3080     2.1820     0.0630 c2         1 1J3      -0.128000
     31 C31          1.1360    -0.0130     4.8540 c          1 1J3       0.612700
     32 O32         -0.0780    -0.0180     4.7950 o          1 1J3      -0.622100
     33 N33          1.7530    -0.0140     6.0530 ns         1 1J3      -0.138300
     34 N34          1.0140    -0.0200     7.2010 n3         1 1J3      -0.362600
     35 C35          1.3090    -1.2090     8.0120 c3         1 1J3       0.139800
     36 C36          0.4060    -1.2180     9.2470 c3         1 1J3       0.158300
     37 N37          0.6250     0.0110    10.0210 n3         1 1J3      -0.554600
     38 C38         -0.1700     0.0060    11.2560 c3         1 1J3       0.190100
     39 C39          0.3300     1.2010     9.2100 c3         1 1J3       0.158300
     40 C40          1.2330     1.2100     7.9750 c3         1 1J3       0.139800
     41 H1          -0.3610     0.8830     0.5130 h1         1 1J3       0.001700
     42 H2          -0.3610     0.0030    -1.0210 h1         1 1J3       0.001700
     43 H3          -0.3610    -0.8860     0.5080 h1         1 1J3       0.001700
     44 H4           0.2140    -0.0100     2.3140 ha         1 1J3       0.145000
     45 H5           3.8260    -0.0000     4.6430 ha         1 1J3       0.102000
     46 H6           5.1570     0.0060     2.5740 ha         1 1J3       0.155000
     47 H7           3.8230     0.3950    -0.7250 hn         1 1J3       0.304800
     48 H8           7.5350    -2.0650     2.1770 h4         1 1J3      -0.009900
     49 H9           8.7510    -3.9230     0.5410 h1         1 1J3       0.021700
     50 H10         10.4370    -3.6980     0.0540 h1         1 1J3       0.021700
     51 H11          9.9210    -3.2520     1.6860 h1         1 1J3       0.021700
     52 H12          8.7490     1.2670    -2.1470 h1         1 1J3       0.057200
     53 H13         10.0110     0.1570    -2.7820 h1         1 1J3       0.057200
     54 H14          9.6460    -2.2910    -1.6810 h1         1 1J3       0.055700
     55 H15          7.6240    -3.5740    -1.5500 hc         1 1J3       0.025200
     56 H16          6.9440    -2.8030    -3.0130 hc         1 1J3       0.025200
     57 H17          7.8180    -4.8560    -3.9040 hc         1 1J3       0.015200
     58 H18          9.2360    -4.8160    -2.8220 hc         1 1J3       0.015200
     59 H19         10.2750    -3.8570    -4.6720 hc         1 1J3       0.015200
     60 H20          8.7360    -3.2950    -5.3640 hc         1 1J3       0.015200
     61 H21          9.0680    -1.2410    -4.4360 hc         1 1J3       0.025200
     62 H22         10.6080    -1.8030    -3.7450 hc         1 1J3       0.025200
     63 H23         11.9860     0.8570    -1.3850 ha         1 1J3       0.131000
     64 H24         10.5070     2.4540     0.7390 ha         1 1J3       0.094000
     65 H25         12.2110     2.7790     0.0240 ha         1 1J3       0.094000
     66 H26          2.7520    -0.0140     6.1010 hn         1 1J3       0.165500
     67 H27          2.3460    -1.1830     8.3250 h1         1 1J3       0.017450
     68 H28          1.1250    -2.1010     7.4250 h1         1 1J3       0.017450
     69 H29          0.6440    -2.0780     9.8610 h1         1 1J3       0.018200
     70 H30         -0.6300    -1.2660     8.9340 h1         1 1J3       0.018200
     71 H32          0.0910    -0.8620    11.8500 h1         1 1J3       0.001033
     72 H33         -1.2240    -0.0310    11.0070 h1         1 1J3       0.001033
     73 H34          0.0360     0.9060    11.8220 h1         1 1J3       0.001033
     74 H35          0.5140     2.0920     9.7980 h1         1 1J3       0.018200
     75 H36         -0.7070     1.1750     8.8980 h1         1 1J3       0.018200
     76 H37          2.2690     1.2600     8.2870 h1         1 1J3       0.017450
     77 H38          0.9930     2.0700     7.3600 h1         1 1J3       0.017450
@<TRIPOS>BOND
     1     1     2 1   
     2     1    41 1   
     3     1    42 1   
     4     1    43 1   
     5     2     3 1   
     6     3     4 ar  
     7     3     8 ar  
     8     4     5 ar  
     9     4    44 1   
    10     5     6 ar  
    11     5    31 1   
    12     6     7 ar  
    13     6    45 1   
    14     7     8 ar  
    15     7    46 1   
    16     8     9 1   
    17     9    10 1   
    18     9    47 1   
    19    10    11 ar  
    20    10    28 ar  
    21    11    12 ar  
    22    12    13 ar  
    23    12    48 1   
    24    13    14 1   
    25    13    27 ar  
    26    14    15 1   
    27    14    16 1   
    28    15    49 1   
    29    15    50 1   
    30    15    51 1   
    31    16    17 2   
    32    16    18 1   
    33    18    19 1   
    34    18    20 1   
    35    18    29 1   
    36    20    21 1   
    37    20    52 1   
    38    20    53 1   
    39    21    22 1   
    40    21    27 1   
    41    22    23 1   
    42    22    26 1   
    43    22    54 1   
    44    23    24 1   
    45    23    55 1   
    46    23    56 1   
    47    24    25 1   
    48    24    57 1   
    49    24    58 1   
    50    25    26 1   
    51    25    59 1   
    52    25    60 1   
    53    26    61 1   
    54    26    62 1   
    55    27    28 ar  
    56    29    30 2   
    57    29    63 1   
    58    30    64 1   
    59    30    65 1   
    60    31    32 2   
    61    31    33 1   
    62    33    34 1   
    63    33    66 1   
    64    34    35 1   
    65    34    40 1   
    66    35    36 1   
    67    35    67 1   
    68    35    68 1   
    69    36    37 1   
    70    36    69 1   
    71    36    70 1   
    72    37    38 1   
    73    37    39 1   
    74    38    71 1   
    75    38    72 1   
    76    38    73 1   
    77    39    40 1   
    78    39    74 1   
    79    39    75 1   
    80    40    76 1   
    81    40    77 1   
@<TRIPOS>SUBSTRUCTURE
     1 1J3         1 TEMP              0 ****  ****    0 ROOT
