@<TRIPOS>MOLECULE
molecule
   74    78     1     0     0
SMALL
bcc


@<TRIPOS>ATOM
      1 O7           0.0000     0.0000     0.0000 o          1 1J4      -0.594100
      2 C6           1.2160     0.0000     0.0000 c          1 1J4       0.675700
      3 N8           1.8900     0.0000     1.1670 ns         1 1J4      -0.581900
      4 C9           1.1570     0.0010     2.4360 c3         1 1J4       0.116700
      5 C10          0.7990    -1.4380     2.8200 c3         1 1J4      -0.093400
      6 C11          0.0870    -1.4360     4.1760 c3         1 1J4       0.165800
      7 N12          0.9680    -0.8430     5.1910 n3         1 1J4      -0.735600
      8 C13          0.3740    -0.9500     6.5310 c3         1 1J4       0.153100
      9 C14          1.2860     0.5540     4.8670 c3         1 1J4       0.165800
     10 C15          2.0330     0.6110     3.5320 c3         1 1J4      -0.093400
     11 C5           1.9530    -0.0070    -1.2760 ca         1 1J4      -0.182600
     12 C4           3.3520    -0.0130    -1.2780 ca         1 1J4      -0.155000
     13 C3           4.0380    -0.0200    -2.4750 ca         1 1J4       0.076100
     14 O2           5.3980    -0.0250    -2.4790 os         1 1J4      -0.335900
     15 C1           6.0500    -0.0250    -1.2070 c3         1 1J4       0.130700
     16 C16          1.2540    -0.0130    -2.4890 ca         1 1J4       0.185900
     17 F17         -0.0970    -0.0120    -2.4910 f          1 1J4      -0.106900
     18 C18          1.9470    -0.0190    -3.6830 ca         1 1J4      -0.171000
     19 C19          3.3370    -0.0210    -3.6830 ca         1 1J4       0.188600
     20 N20          4.0320    -0.0280    -4.8910 nu         1 1J4      -0.733300
     21 C21          3.4360     0.4760    -6.0380 ca         1 1J4       0.937900
     22 N22          2.2580     1.0700    -5.9400 nb         1 1J4      -0.778000
     23 C23          1.6470     1.5600    -7.0130 ca         1 1J4       0.499200
     24 C24          2.2660     1.4400    -8.2420 ca         1 1J4      -0.291000
     25 N25          1.6570     1.9100    -9.4150 n          1 1J4      -0.378000
     26 C26          1.1000     3.2640    -9.4840 c3         1 1J4       0.100300
     27 C27          1.6000     1.0820   -10.4820 c          1 1J4       0.663500
     28 O28          1.1390     1.4700   -11.5340 o          1 1J4      -0.583500
     29 N40          4.0660     0.3510    -7.1970 nb         1 1J4      -0.748000
     30 C39          3.5190     0.8180    -8.3120 ca         1 1J4       0.680200
     31 N33          4.1760     0.7240    -9.5250 nh         1 1J4      -0.704300
     32 C32          3.6380    -0.3460   -10.3700 c3         1 1J4       0.138800
     33 C29          2.1120    -0.3280   -10.3500 c3         1 1J4       0.304600
     34 F30          1.6590    -0.8720    -9.1440 f          1 1J4      -0.211800
     35 F31          1.6270    -1.0950   -11.4140 f          1 1J4      -0.211800
     36 C34          4.1610     2.0110   -10.2330 c3         1 1J4       0.137500
     37 C35          4.8600     3.1040    -9.3870 c3         1 1J4      -0.079400
     38 C36          5.2890     4.1410   -10.4530 c3         1 1J4      -0.080900
     39 C37          5.7260     3.2840   -11.6600 c3         1 1J4      -0.080900
     40 C38          5.0090     1.9300   -11.5190 c3         1 1J4      -0.079400
     41 H1           2.8900     0.0350     1.1670 hn         1 1J4       0.309500
     42 H2           0.2490     0.5840     2.3350 h1         1 1J4       0.079700
     43 H3           1.7040    -2.0290     2.8890 hc         1 1J4       0.054700
     44 H4           0.1410    -1.8580     2.0690 hc         1 1J4       0.054700
     45 H5          -0.8230    -0.8520     4.1040 h1         1 1J4       0.037450
     46 H6          -0.1520    -2.4540     4.4580 h1         1 1J4       0.037450
     47 H8           0.1830    -1.9910     6.7590 h1         1 1J4       0.032367
     48 H9           1.0580    -0.5390     7.2630 h1         1 1J4       0.032367
     49 H10         -0.5580    -0.3970     6.5580 h1         1 1J4       0.032367
     50 H11          1.9120     0.9710     5.6470 h1         1 1J4       0.037450
     51 H12          0.3680     1.1230     4.7900 h1         1 1J4       0.037450
     52 H13          2.9560     0.0490     3.6110 hc         1 1J4       0.054700
     53 H14          2.2520     1.6430     3.2860 hc         1 1J4       0.054700
     54 H15          3.8950     0.0430    -0.3430 ha         1 1J4       0.139000
     55 H16          5.7750     0.8690    -0.6600 h1         1 1J4       0.043367
     56 H17          5.7470    -0.9000    -0.6450 h1         1 1J4       0.043367
     57 H18          7.1240    -0.0440    -1.3520 h1         1 1J4       0.043367
     58 H19          1.4070    -0.0220    -4.6220 ha         1 1J4       0.194000
     59 H20          4.9520    -0.4200    -4.9360 hn         1 1J4       0.484800
     60 H21          0.6830     2.0450    -6.9250 h4         1 1J4       0.042100
     61 H22          1.2590     3.6710   -10.4750 h1         1 1J4       0.055033
     62 H23          1.5900     3.8940    -8.7520 h1         1 1J4       0.055033
     63 H24          0.0370     3.2280    -9.2750 h1         1 1J4       0.055033
     64 H25          3.9820    -0.2040   -11.3880 h1         1 1J4       0.098700
     65 H26          3.9870    -1.3020   -10.0000 h1         1 1J4       0.098700
     66 H27          3.1460     2.3090   -10.4690 h1         1 1J4       0.065700
     67 H28          4.1650     3.5450    -8.6830 hc         1 1J4       0.055700
     68 H29          5.7260     2.6980    -8.8780 hc         1 1J4       0.055700
     69 H30          4.4520     4.7730   -10.7230 hc         1 1J4       0.047200
     70 H31          6.1200     4.7340   -10.0910 hc         1 1J4       0.047200
     71 H32          5.4290     3.7660   -12.5830 hc         1 1J4       0.047200
     72 H33          6.8000     3.1370   -11.6390 hc         1 1J4       0.047200
     73 H34          4.3670     1.7620   -12.3750 hc         1 1J4       0.055700
     74 H35          5.7370     1.1330   -11.4320 hc         1 1J4       0.055700
@<TRIPOS>BOND
     1    15    14 1   
     2    14    13 1   
     3     1     2 2   
     4    12    13 ar  
     5    12    11 ar  
     6    13    19 ar  
     7     2    11 1   
     8     2     3 1   
     9    11    16 ar  
    10    19    20 1   
    11    19    18 ar  
    12    20    21 1   
    13     4     3 1   
    14     4    10 1   
    15     4     5 1   
    16    16    18 ar  
    17    16    17 1   
    18    22    21 ar  
    19    22    23 ar  
    20    21    29 ar  
    21    10     9 1   
    22     5     6 1   
    23     9     7 1   
    24     6     7 1   
    25    23    24 ar  
    26    29    30 ar  
    27     7     8 1   
    28    24    30 ar  
    29    24    25 1   
    30    26    25 1   
    31    30    31 1   
    32    25    27 1   
    33    36    31 1   
    34    36    40 1   
    35    36    37 1   
    36    31    32 1   
    37    40    39 1   
    38    37    38 1   
    39    27    28 2   
    40    27    33 1   
    41    32    33 1   
    42    39    38 1   
    43    33    35 1   
    44    33    34 1   
    45     3    41 1   
    46     4    42 1   
    47     5    43 1   
    48     5    44 1   
    49     6    45 1   
    50     6    46 1   
    51     8    47 1   
    52     8    48 1   
    53     8    49 1   
    54     9    50 1   
    55     9    51 1   
    56    10    52 1   
    57    10    53 1   
    58    12    54 1   
    59    15    55 1   
    60    15    56 1   
    61    15    57 1   
    62    18    58 1   
    63    20    59 1   
    64    23    60 1   
    65    26    61 1   
    66    26    62 1   
    67    26    63 1   
    68    32    64 1   
    69    32    65 1   
    70    36    66 1   
    71    37    67 1   
    72    37    68 1   
    73    38    69 1   
    74    38    70 1   
    75    39    71 1   
    76    39    72 1   
    77    40    73 1   
    78    40    74 1   
@<TRIPOS>SUBSTRUCTURE
     1 1J4         1 TEMP              0 ****  ****    0 ROOT
