@<TRIPOS>MOLECULE
1J4
   75    79     1     0     0
SMALL
bcc


@<TRIPOS>ATOM
      1 O7           0.5400     1.0670     0.4430 o          1 1J4      -0.456100
      2 C6           1.5150     0.3690     0.1810 c          1 1J4       0.581700
      3 N8           1.9910    -0.5440     1.2940 ny         1 1J4      -0.672800
      4 C9           1.3570    -0.2880     2.6380 c3         1 1J4       0.125500
      5 C10          1.5240    -1.5060     3.5510 c3         1 1J4      -0.100900
      6 C11          0.8820    -1.2110     4.9090 c3         1 1J4       0.171300
      7 N12          1.4240    -0.0130     5.5300 n3         1 1J4      -0.739600
      8 C13          0.9210     0.2060     6.8680 c3         1 1J4       0.155100
      9 C14          1.2920     1.1570     4.6750 c3         1 1J4       0.171300
     10 C15          1.9460     0.9580     3.3060 c3         1 1J4      -0.100900
     11 C5           2.2580     0.3360    -1.0670 ca         1 1J4      -0.281600
     12 C4           1.9300     1.3550    -1.9960 ca         1 1J4      -0.085000
     13 C3           2.5540     1.4430    -3.2220 ca         1 1J4       0.051100
     14 O2           2.2790     2.4320    -4.1470 os         1 1J4      -0.331900
     15 C1           1.1630     3.2780    -3.8760 c3         1 1J4       0.112700
     16 C16          3.2420    -0.6020    -1.4500 ca         1 1J4       0.193900
     17 F17          3.5900    -1.6230    -0.6250 f          1 1J4      -0.152900
     18 C18          3.8830    -0.5260    -2.6900 ca         1 1J4      -0.223000
     19 C19          3.5790     0.4920    -3.6210 ca         1 1J4       0.292600
     20 N20          4.1610     0.6340    -4.8540 nu         1 1J4      -0.693300
     21 C21          5.2140    -0.1180    -5.4380 ca         1 1J4       0.860900
     22 N22          5.4790     0.1930    -6.7660 nb         1 1J4      -0.700000
     23 C23          6.4770    -0.4760    -7.3450 ca         1 1J4       0.452200
     24 C24          7.2520    -1.4740    -6.6850 ca         1 1J4      -0.170000
     25 N25          8.2710    -2.1560    -7.3640 n          1 1J4      -0.356000
     26 C26          8.0020    -2.5960    -8.7150 c3         1 1J4       0.071300
     27 C27          9.4650    -2.5180    -6.7470 c          1 1J4       0.679500
     28 O28         10.2590    -3.3110    -7.2660 o          1 1J4      -0.556500
     29 N40          5.8950    -1.0490    -4.6980 nb         1 1J4      -0.760000
     30 C39          6.8940    -1.7450    -5.3140 ca         1 1J4       0.641200
     31 N33          7.5840    -2.7970    -4.6360 nh         1 1J4      -0.731300
     32 C32          8.9350    -2.4700    -4.2290 c3         1 1J4       0.135800
     33 C29          9.8160    -1.8620    -5.3720 c3         1 1J4       0.348600
     34 F30         11.1490    -2.0550    -5.0850 f          1 1J4      -0.211300
     35 F31          9.7300    -0.4870    -5.4100 f          1 1J4      -0.211300
     36 C34          6.8170    -3.5470    -3.6380 c3         1 1J4       0.204500
     37 C35          7.3770    -4.9730    -3.4260 c3         1 1J4      -0.096900
     38 C36          8.0630    -5.0020    -2.0700 c3         1 1J4      -0.085400
     39 C37          7.7200    -3.7070    -1.3460 c3         1 1J4      -0.085400
     40 C38          6.7480    -2.9330    -2.2230 c3         1 1J4      -0.096900
     41 H1           3.0100    -0.4430     1.3780 hn         1 1J4       0.457300
     42 H2           0.2540    -0.1140     2.4460 hx         1 1J4       0.120700
     43 H3           1.0180    -2.4050     3.1120 hc         1 1J4       0.069950
     44 H4           2.6110    -1.7440     3.6950 hc         1 1J4       0.069950
     45 H5          -0.2380    -1.1490     4.7690 h1         1 1J4       0.056200
     46 H6           1.0960    -2.0820     5.5930 h1         1 1J4       0.056200
     47 H8           1.1450    -0.7010     7.4890 h1         1 1J4       0.048367
     48 H9           1.4550     1.0870     7.3120 h1         1 1J4       0.048367
     49 H10         -0.1860     0.4010     6.8980 h1         1 1J4       0.048367
     50 H11          1.8100     2.0180     5.1870 h1         1 1J4       0.056200
     51 H12          0.2120     1.4480     4.5180 h1         1 1J4       0.056200
     52 H13          3.0550     0.8500     3.4320 hc         1 1J4       0.069950
     53 H14          1.7410     1.8650     2.6800 hc         1 1J4       0.069950
     54 H15          1.1530     2.0860    -1.7090 ha         1 1J4       0.176000
     55 H16          1.1020     3.9130    -4.7970 h1         1 1J4       0.061033
     56 H17          0.2310     2.6760    -3.7460 h1         1 1J4       0.061033
     57 H18          1.3640     3.9070    -2.9750 h1         1 1J4       0.061033
     58 H19          4.6410    -1.3010    -2.9120 ha         1 1J4       0.211000
     59 H20          3.8030     1.3780    -5.4320 hn         1 1J4       0.494800
     60 H21          6.6710    -0.2130    -8.4050 h4         1 1J4       0.057100
     61 H22          6.9330    -2.9250    -8.8080 h1         1 1J4       0.062700
     62 H23          8.6780    -3.4550    -8.9740 h1         1 1J4       0.062700
     63 H24          8.1940    -1.7520    -9.4300 h1         1 1J4       0.062700
     64 H25          8.9640    -1.7410    -3.3670 h1         1 1J4       0.085700
     65 H26          9.4270    -3.4300    -3.8980 h1         1 1J4       0.085700
     66 H27          5.7710    -3.6380    -4.0530 h1         1 1J4       0.069700
     67 H28          8.0740    -5.2870    -4.2420 hc         1 1J4       0.055200
     68 H29          6.5130    -5.6860    -3.4390 hc         1 1J4       0.055200
     69 H30          7.7210    -5.8880    -1.4780 hc         1 1J4       0.049450
     70 H31          9.1720    -5.0980    -2.1920 hc         1 1J4       0.049450
     71 H32          8.6480    -3.1030    -1.1730 hc         1 1J4       0.049450
     72 H33          7.2690    -3.9160    -0.3450 hc         1 1J4       0.049450
     73 H34          5.7030    -3.0490    -1.8370 hc         1 1J4       0.055200
     74 H35          6.9830    -1.8410    -2.2210 hc         1 1J4       0.055200
     75 H82          1.7990    -1.5130     1.0120 hn         1 1J4       0.457300
@<TRIPOS>BOND
     1     1     2 2   
     2     2     3 1   
     3     2    11 1   
     4     3     4 1   
     5     3    41 1   
     6     3    75 1   
     7     4     5 1   
     8     4    10 1   
     9     4    42 1   
    10     5     6 1   
    11     5    43 1   
    12     5    44 1   
    13     6     7 1   
    14     6    45 1   
    15     6    46 1   
    16     7     8 1   
    17     7     9 1   
    18     8    47 1   
    19     8    48 1   
    20     8    49 1   
    21     9    10 1   
    22     9    50 1   
    23     9    51 1   
    24    10    52 1   
    25    10    53 1   
    26    11    12 ar  
    27    11    16 ar  
    28    12    13 ar  
    29    12    54 1   
    30    13    14 1   
    31    13    19 ar  
    32    14    15 1   
    33    15    55 1   
    34    15    56 1   
    35    15    57 1   
    36    16    17 1   
    37    16    18 ar  
    38    18    19 ar  
    39    18    58 1   
    40    19    20 1   
    41    20    21 1   
    42    20    59 1   
    43    21    22 ar  
    44    21    29 ar  
    45    22    23 ar  
    46    23    24 ar  
    47    23    60 1   
    48    24    25 1   
    49    24    30 ar  
    50    25    26 1   
    51    25    27 1   
    52    26    61 1   
    53    26    62 1   
    54    26    63 1   
    55    27    28 2   
    56    27    33 1   
    57    29    30 ar  
    58    30    31 1   
    59    31    32 1   
    60    31    36 1   
    61    32    33 1   
    62    32    64 1   
    63    32    65 1   
    64    33    34 1   
    65    33    35 1   
    66    36    37 1   
    67    36    40 1   
    68    36    66 1   
    69    37    38 1   
    70    37    67 1   
    71    37    68 1   
    72    38    39 1   
    73    38    69 1   
    74    38    70 1   
    75    39    40 1   
    76    39    71 1   
    77    39    72 1   
    78    40    73 1   
    79    40    74 1   
@<TRIPOS>SUBSTRUCTURE
     1 1J4         1 TEMP              0 ****  ****    0 ROOT
