@<TRIPOS>MOLECULE
1J5
   42    45     1     0     0
SMALL
bcc


@<TRIPOS>ATOM
      1 C1           0.0000     0.0000     0.0000 c3         1 1J5      -0.025100
      2 C2           1.5300     0.0000     0.0000 c3         1 1J5       0.202800
      3 O4           2.0070     0.0000     1.3470 oh         1 1J5      -0.557800
      4 C5           2.0320    -1.2300    -0.7110 cc         1 1J5       0.175800
      5 N6           2.5310    -1.2530    -1.9780 na         1 1J5       0.334700
      6 C7           2.8780    -2.5490    -2.2600 ca         1 1J5      -0.205200
      7 C8           2.5670    -3.2970    -1.1120 ca         1 1J5      -0.086900
      8 N9           2.0580    -2.4280    -0.2020 nd         1 1J5      -0.442100
      9 C10          2.8190    -4.6730    -1.1140 ca         1 1J5       0.493200
     10 N11          3.3370    -5.2670    -2.1650 nb         1 1J5      -0.588000
     11 C12          3.6510    -4.6050    -3.2760 ca         1 1J5       0.230800
     12 C13          3.4300    -3.2210    -3.3600 ca         1 1J5      -0.201100
     13 C14          3.8760    -2.8140    -4.6920 cc         1 1J5      -0.205200
     14 C15          4.3200    -3.9210    -5.3100 cd         1 1J5      -0.264100
     15 N16          4.1910    -5.0000    -4.4780 na         1 1J5       0.289900
     16 C18          2.6700    -0.1020    -2.8750 c3         1 1J5      -0.069000
     17 C20          4.1440     0.0780    -3.2470 c3         1 1J5       0.060600
     18 C21          4.2890     1.2800    -4.1840 c3         1 1J5      -0.186900
     19 C22          3.4680     1.0390    -5.4530 c3         1 1J5       0.411400
     20 C24          1.9950     0.8580    -5.0810 c3         1 1J5      -0.186900
     21 C25          1.8490    -0.3430    -4.1440 c3         1 1J5       0.060600
     22 C26          3.6090     2.1940    -6.3540 c1         1 1J5       0.195700
     23 N27          3.7010     3.0930    -7.0420 n1         1 1J5      -0.346800
     24 H1          -0.3610    -0.3460     0.9610 hc         1 1J5       0.016700
     25 H2          -0.3610    -0.6590    -0.7800 hc         1 1J5       0.016700
     26 H3          -0.3610     1.0050    -0.1810 hc         1 1J5       0.016700
     27 H4           1.8910     0.8850    -0.5110 h1         1 1J5      -0.001300
     28 H5           2.2950     0.8680     1.5780 ho         1 1J5       0.386000
     29 H6           2.5680    -5.2710    -0.2460 h4         1 1J5      -0.011900
     30 H8           3.8500    -1.8080    -5.0930 ha         1 1J5       0.128000
     31 H9           4.7080    -3.9740    -6.3200 h4         1 1J5       0.142000
     32 H10          2.3130     0.7920    -2.3800 h1         1 1J5       0.089700
     33 H11          4.7170     0.2390    -2.3410 hc         1 1J5       0.035950
     34 H12          4.4950    -0.8220    -3.7360 hc         1 1J5       0.035950
     35 H13          5.3430     1.4700    -4.3490 hc         1 1J5      -0.013800
     36 H14          3.8160     1.0450    -5.1300 hc         1 1J5      -0.013800
     37 H15          3.8260     0.1440    -5.9470 hc         1 1J5      -0.081300
     38 H16          1.4090     0.7550    -5.9860 hc         1 1J5      -0.013800
     39 H17          1.8880    -0.0330    -4.4740 hc         1 1J5      -0.013800
     40 H18          0.8000    -0.4460    -3.8940 hc         1 1J5       0.035950
     41 H19          2.2070    -1.2290    -4.6560 hc         1 1J5       0.035950
     42 H7           4.4560    -5.9330    -4.7250 hn         1 1J5       0.119700
@<TRIPOS>BOND
     1     1     2 1   
     2     1    24 1   
     3     1    25 1   
     4     1    26 1   
     5     2     3 1   
     6     2     4 1   
     7     2    27 1   
     8     3    28 1   
     9     4     5 1   
    10     4     8 2   
    11     5     6 1   
    12     5    16 1   
    13     6     7 ar  
    14     6    12 ar  
    15     7     8 1   
    16     7     9 ar  
    17     9    10 ar  
    18     9    29 1   
    19    10    11 ar  
    20    11    12 ar  
    21    11    15 1   
    22    12    13 1   
    23    13    14 2   
    24    13    30 1   
    25    14    15 1   
    26    14    31 1   
    27    15    42 1   
    28    16    17 1   
    29    16    21 1   
    30    16    32 1   
    31    17    18 1   
    32    17    33 1   
    33    17    34 1   
    34    18    19 1   
    35    18    35 1   
    36    18    36 1   
    37    19    20 1   
    38    19    22 1   
    39    19    37 1   
    40    20    21 1   
    41    20    38 1   
    42    20    39 1   
    43    21    40 1   
    44    21    41 1   
    45    22    23 3   
@<TRIPOS>SUBSTRUCTURE
     1 1J5         1 TEMP              0 ****  ****    0 ROOT
