@<TRIPOS>MOLECULE
molecule
   42    45     1     0     0
SMALL
bcc


@<TRIPOS>ATOM
      1 C1           0.0000     0.0000     0.0000 c3         1 1J5      -0.111100
      2 C2           1.5300     0.0000     0.0000 c3         1 1J5       0.150800
      3 O4           2.0070     0.0000     1.3470 oh         1 1J5      -0.574800
      4 C5           2.0320    -1.2300    -0.7110 cc         1 1J5       0.398800
      5 N6           2.5310    -1.2530    -1.9780 na         1 1J5      -0.146300
      6 C7           2.8780    -2.5490    -2.2600 ca         1 1J5      -0.038200
      7 C8           2.5670    -3.2970    -1.1120 ca         1 1J5      -0.059900
      8 N9           2.0580    -2.4280    -0.2020 nd         1 1J5      -0.540100
      9 C10          2.8190    -4.6730    -1.1140 ca         1 1J5       0.520200
     10 N11          3.3370    -5.2670    -2.1650 nb         1 1J5      -0.715000
     11 C12          3.6510    -4.6050    -3.2760 ca         1 1J5       0.472800
     12 C13          3.4300    -3.2210    -3.3600 ca         1 1J5      -0.223100
     13 C14          3.8760    -2.8140    -4.6920 cc         1 1J5      -0.222200
     14 C15          4.3200    -3.9210    -5.3100 cd         1 1J5      -0.092100
     15 N16          4.1910    -5.0000    -4.4780 na         1 1J5      -0.263100
     16 C18          2.6700    -0.1020    -2.8750 c3         1 1J5       0.063000
     17 C20          4.1440     0.0780    -3.2470 c3         1 1J5      -0.087400
     18 C21          4.2890     1.2800    -4.1840 c3         1 1J5      -0.381900
     19 C22          3.4680     1.0390    -5.4530 c3         1 1J5       0.162400
     20 C24          1.9950     0.8580    -5.0810 c3         1 1J5      -0.381900
     21 C25          1.8490    -0.3430    -4.1440 c3         1 1J5      -0.087400
     22 C26          3.6090     2.1940    -6.3540 c1         1 1J5       0.225700
     23 N27          3.7010     3.0930    -7.0420 n1         1 1J5      -0.314800
     24 H1          -0.3610    -0.3460     0.9610 hc         1 1J5       0.052367
     25 H2          -0.3610    -0.6590    -0.7800 hc         1 1J5       0.052367
     26 H3          -0.3610     1.0050    -0.1810 hc         1 1J5       0.052367
     27 H4           1.8910     0.8850    -0.5110 h1         1 1J5       0.040700
     28 H5           2.2950     0.8680     1.5780 ho         1 1J5       0.406000
     29 H6           2.5680    -5.2710    -0.2460 h4         1 1J5       0.043100
     30 H8           3.8500    -1.8080    -5.0930 ha         1 1J5       0.138000
     31 H9           4.7080    -3.9740    -6.3200 h4         1 1J5       0.171000
     32 H10          2.3130     0.7920    -2.3800 h1         1 1J5       0.121700
     33 H11          4.7170     0.2390    -2.3410 hc         1 1J5       0.076700
     34 H12          4.4950    -0.8220    -3.7360 hc         1 1J5       0.076700
     35 H13          5.3430     1.4700    -4.3490 hc         1 1J5       0.148950
     36 H14          3.8160     1.0450    -5.1300 hc         1 1J5       0.148950
     37 H15          3.8260     0.1440    -5.9470 hc         1 1J5      -0.045300
     38 H16          1.4090     0.7550    -5.9860 hc         1 1J5       0.148950
     39 H17          1.8880    -0.0330    -4.4740 hc         1 1J5       0.148950
     40 H18          0.8000    -0.4460    -3.8940 hc         1 1J5       0.076700
     41 H19          2.2070    -1.2290    -4.6560 hc         1 1J5       0.076700
     42 H7           4.4560    -5.9330    -4.7250 hn         1 1J5       0.310700
@<TRIPOS>BOND
     1     3     2 1
     2     9     7 ar
     3     9    10 ar
     4     8     7 1
     5     8     4 2
     6     7     6 ar
     7    10    11 ar
     8     2     4 1
     9     2     1 1
    10     4     5 1
    11    17    18 1
    12    17    16 1
    13    11    12 ar
    14    11    15 1
    15     6     5 1
    16     6    12 ar
    17     5    16 1
    18    12    13 1
    19    15    14 1
    20    18    19 1
    21    16    21 1
    22    13    14 2
    23    19    22 1
    24    19    20 1
    25    21    20 1
    26    22    23 3
    27     1    24 1
    28     1    25 1
    29     1    26 1
    30     2    27 1
    31     3    28 1
    32     9    29 1
    33    13    30 1
    34    14    31 1
    35    16    32 1
    36    17    33 1
    37    17    34 1
    38    18    35 1
    39    18    36 1
    40    19    37 1
    41    20    38 1
    42    20    39 1
    43    21    40 1
    44    21    41 1
    45    15    42 1
@<TRIPOS>SUBSTRUCTURE
     1 1J5         1 TEMP              0 ****  ****    0 ROOT
