@<TRIPOS>MOLECULE
1J5
   42    45     1     0     0
SMALL
bcc


@<TRIPOS>ATOM
      1 C1           0.0250    -0.1220     0.4180 c3         1 1J5      -0.118100
      2 C2           1.3790     0.1230    -0.2200 c3         1 1J5       0.137800
      3 O4           2.3010     0.6560     0.7170 oh         1 1J5      -0.601800
      4 C5           1.9410    -1.1270    -0.8590 cc         1 1J5       0.345800
      5 N6           3.1630    -1.1260    -1.5940 na         1 1J5      -0.132300
      6 C7           3.3430    -2.4320    -2.0510 ca         1 1J5       0.000800
      7 C8           2.2000    -3.1850    -1.5640 ca         1 1J5      -0.091900
      8 N9           1.3580    -2.3430    -0.8300 nd         1 1J5      -0.535100
      9 C10          2.0760    -4.5720    -1.8630 ca         1 1J5       0.484200
     10 N11          2.9630    -5.2430    -2.5830 nb         1 1J5      -0.683000
     11 C12          4.0440    -4.5230    -3.0460 ca         1 1J5       0.418800
     12 C13          4.3040    -3.1060    -2.8210 ca         1 1J5      -0.190100
     13 C14          5.5350    -2.8050    -3.4950 cc         1 1J5      -0.182200
     14 C15          5.9840    -3.9860    -4.0890 cd         1 1J5      -0.118100
     15 N16          5.0950    -5.0250    -3.8250 na         1 1J5      -0.269100
     16 C18          4.0360     0.0150    -1.7620 c3         1 1J5       0.052000
     17 C20          5.4260    -0.2040    -1.1400 c3         1 1J5      -0.095900
     18 C21          6.2790     1.0370    -1.2860 c3         1 1J5      -0.073400
     19 C22          6.4110     1.4330    -2.7540 c3         1 1J5      -0.006600
     20 C24          5.0310     1.6810    -3.3550 c3         1 1J5      -0.073400
     21 C25          4.1640     0.4460    -3.2330 c3         1 1J5      -0.095900
     22 C26          7.2500     2.6090    -2.8950 c1         1 1J5       0.211700
     23 N27          7.9280     3.5460    -3.0130 n1         1 1J5      -0.369800
     24 H1          -0.7080    -0.4650    -0.3510 hc         1 1J5       0.056367
     25 H2           0.0940    -0.8990     1.2170 hc         1 1J5       0.056367
     26 H3          -0.3400     0.8300     0.8750 hc         1 1J5       0.056367
     27 H4           1.2950     0.9290    -1.0090 h1         1 1J5       0.083700
     28 H5           2.3350     0.0530     1.4700 ho         1 1J5       0.413000
     29 H6           1.2070    -5.1450    -1.4910 h4         1 1J5       0.038100
     30 H8           6.0380    -1.8430    -3.5450 ha         1 1J5       0.153000
     31 H9           6.8800    -4.1620    -4.6870 h4         1 1J5       0.170000
     32 H10          3.5560     0.8750    -1.1960 h1         1 1J5       0.089700
     33 H11          5.3120    -0.4400    -0.0490 hc         1 1J5       0.061950
     34 H12          5.9330    -1.0790    -1.6220 hc         1 1J5       0.061950
     35 H13          5.8230     1.8840    -0.7090 hc         1 1J5       0.058450
     36 H14          7.2950     0.8410    -0.8560 hc         1 1J5       0.058450
     37 H15          6.9040     0.5840    -3.3150 hc         1 1J5       0.077700
     38 H16          4.5430     2.5440    -2.8310 hc         1 1J5       0.058450
     39 H17          5.1350     1.9550    -4.4370 hc         1 1J5       0.058450
     40 H18          3.1470     0.6720    -3.6490 hc         1 1J5       0.061950
     41 H19          4.5970    -0.3890    -3.8440 hc         1 1J5       0.061950
     42 H7           5.1790    -5.9590    -4.1310 hn         1 1J5       0.311700
@<TRIPOS>BOND
     1     1     2 1   
     2     1    24 1   
     3     1    25 1   
     4     1    26 1   
     5     2     3 1   
     6     2     4 1   
     7     2    27 1   
     8     3    28 1   
     9     4     5 1   
    10     4     8 2   
    11     5     6 1   
    12     5    16 1   
    13     6     7 ar  
    14     6    12 ar  
    15     7     8 1   
    16     7     9 ar  
    17     9    10 ar  
    18     9    29 1   
    19    10    11 ar  
    20    11    12 ar  
    21    11    15 1   
    22    12    13 1   
    23    13    14 2   
    24    13    30 1   
    25    14    15 1   
    26    14    31 1   
    27    15    42 1   
    28    16    17 1   
    29    16    21 1   
    30    16    32 1   
    31    17    18 1   
    32    17    33 1   
    33    17    34 1   
    34    18    19 1   
    35    18    35 1   
    36    18    36 1   
    37    19    20 1   
    38    19    22 1   
    39    19    37 1   
    40    20    21 1   
    41    20    38 1   
    42    20    39 1   
    43    21    40 1   
    44    21    41 1   
    45    22    23 3   
@<TRIPOS>SUBSTRUCTURE
     1 1J5         1 TEMP              0 ****  ****    0 ROOT
