@<TRIPOS>MOLECULE
molecule
   45    48     1     0     0
SMALL
bcc


@<TRIPOS>ATOM
      1 C1           0.0000     0.0000     0.0000 c3         1 1J6      -0.121100
      2 C2           1.5300     0.0000     0.0000 c3         1 1J6       0.154800
      3 O4           2.0060     0.0000     1.3470 oh         1 1J6      -0.576800
      4 C5           2.0310    -1.2310    -0.7100 cc         1 1J6       0.390800
      5 N6           2.5300    -1.2540    -1.9770 na         1 1J6      -0.114300
      6 C7           2.8770    -2.5510    -2.2570 ca         1 1J6      -0.000200
      7 C8           2.5650    -3.2980    -1.1100 ca         1 1J6      -0.076900
      8 N9           2.0570    -2.4280    -0.2000 nd         1 1J6      -0.540100
      9 C10          2.8170    -4.6750    -1.1110 ca         1 1J6       0.512200
     10 N11          3.3360    -5.2700    -2.1600 nb         1 1J6      -0.719000
     11 C12          3.6490    -4.6080    -3.2720 ca         1 1J6       0.461800
     12 C13          3.4300    -3.2230    -3.3570 ca         1 1J6      -0.201100
     13 C14          3.8750    -2.8180    -4.6900 cc         1 1J6      -0.163200
     14 C15          4.3200    -3.9250    -5.3070 cd         1 1J6      -0.124100
     15 N16          4.1890    -5.0040    -4.4740 na         1 1J6      -0.268100
     16 C18          2.6710    -0.1050    -2.8740 c3         1 1J6       0.104000
     17 C20          4.1440     0.0750    -3.2460 c3         1 1J6      -0.275900
     18 C21          4.2900     1.2750    -4.1840 c3         1 1J6      -0.356900
     19 C22          3.4700     1.0350    -5.4530 c3         1 1J6       0.072300
     20 C24          1.9970     0.8540    -5.0810 c3         1 1J6      -0.356900
     21 C25          1.8510    -0.3460    -4.1440 c3         1 1J6      -0.275900
     22 C26          3.6170     2.2350    -6.3900 c3         1 1J6      -0.222300
     23 C27          2.9260     1.9530    -7.6590 c1         1 1J6       0.286700
     24 N28          2.3760     1.7350    -8.6290 n1         1 1J6      -0.369800
     25 H1          -0.3610     0.9100     0.4640 hc         1 1J6       0.049033
     26 H2          -0.3610    -0.8570     0.5560 hc         1 1J6       0.049033
     27 H3          -0.3610    -0.0530    -1.0200 hc         1 1J6       0.049033
     28 H4           1.8910     0.8840    -0.5110 h1         1 1J6       0.029700
     29 H5           1.8960     0.8590     1.7200 ho         1 1J6       0.404000
     30 H6           2.5840    -5.2680    -0.2350 h4         1 1J6       0.037100
     31 H8           3.8480    -1.8130    -5.0930 ha         1 1J6       0.151000
     32 H9           4.7200    -3.9760    -6.3120 h4         1 1J6       0.165000
     33 H10          2.3130     0.7910    -2.3800 h1         1 1J6       0.060700
     34 H11          4.7330     0.1120    -2.3380 hc         1 1J6       0.155950
     35 H12          4.2580     1.0080    -3.7840 hc         1 1J6       0.155950
     36 H13          3.8180     1.0410    -5.1300 hc         1 1J6       0.116950
     37 H14          5.3440     1.4650    -4.3480 hc         1 1J6       0.116950
     38 H15          3.8280     0.1400    -5.9460 hc         1 1J6       0.056700
     39 H16          1.8860    -0.0710    -4.5290 hc         1 1J6       0.116950
     40 H17          1.4100     0.8010    -5.9900 hc         1 1J6       0.116950
     41 H18          1.8380     0.5640    -4.7310 hc         1 1J6       0.155950
     42 H19          0.8370    -0.6030    -3.8620 hc         1 1J6       0.155950
     43 H20          3.8850     3.1120    -5.8150 hc         1 1J6       0.166700
     44 H21          2.6780     2.4110    -6.9010 hc         1 1J6       0.166700
     45 H7           4.4550    -5.9370    -4.7200 hn         1 1J6       0.303700
@<TRIPOS>BOND
     1     1     2 1   
     2     8     4 2   
     3     8     7 1   
     4     2     4 1   
     5     2     3 1   
     6     9     7 ar  
     7     9    10 ar  
     8     4     5 1   
     9     7     6 ar  
    10    21    20 1   
    11    21    16 1   
    12    10    11 ar  
    13     5     6 1   
    14     5    16 1   
    15     6    12 ar  
    16    20    19 1   
    17    11    12 ar  
    18    11    15 1   
    19    16    17 1   
    20    12    13 1   
    21    15    14 1   
    22    24    23 3   
    23    13    14 2   
    24    23    22 1   
    25    19    22 1   
    26    19    18 1   
    27    17    18 1   
    28     1    25 1   
    29     1    26 1   
    30     1    27 1   
    31     2    28 1   
    32     3    29 1   
    33     9    30 1   
    34    13    31 1   
    35    14    32 1   
    36    16    33 1   
    37    17    34 1   
    38    17    35 1   
    39    18    36 1   
    40    18    37 1   
    41    19    38 1   
    42    20    39 1   
    43    20    40 1   
    44    21    41 1   
    45    21    42 1   
    46    22    43 1   
    47    22    44 1   
    48    15    45 1   
@<TRIPOS>SUBSTRUCTURE
     1 1J6         1 TEMP              0 ****  ****    0 ROOT
