@<TRIPOS>MOLECULE
1J6
   45    48     1     0     0
SMALL
bcc


@<TRIPOS>ATOM
      1 C1          -0.0120     0.0070     0.1060 c3         1 1J6      -0.118100
      2 C2           1.4930     0.0770    -0.0750 c3         1 1J6       0.137800
      3 O4           2.1490     0.3260     1.1580 oh         1 1J6      -0.602800
      4 C5           2.0460    -1.1720    -0.7230 cc         1 1J6       0.343800
      5 N6           3.4190    -1.3020    -1.0840 na         1 1J6      -0.131300
      6 C7           3.5490    -2.5580    -1.6750 ca         1 1J6       0.001800
      7 C8           2.2230    -3.1510    -1.6450 ca         1 1J6      -0.092900
      8 N9           1.3220    -2.2640    -1.0480 nd         1 1J6      -0.535100
      9 C10          2.0080    -4.4520    -2.1830 ca         1 1J6       0.484200
     10 N11          2.9700    -5.1820    -2.7280 nb         1 1J6      -0.683000
     11 C12          4.2260    -4.6130    -2.7580 ca         1 1J6       0.418800
     12 C13          4.5950    -3.2980    -2.2480 ca         1 1J6      -0.189100
     13 C14          6.0000    -3.1400    -2.5040 cc         1 1J6      -0.180200
     14 C15          6.4410    -4.3050    -3.1330 cd         1 1J6      -0.119100
     15 N16          5.3840    -5.1990    -3.2890 na         1 1J6      -0.270100
     16 C18          4.4490    -0.3200    -0.8180 c3         1 1J6       0.053000
     17 C20          5.5480    -0.8520     0.1190 c3         1 1J6      -0.093900
     18 C21          6.5670     0.2270     0.4120 c3         1 1J6      -0.076400
     19 C22          7.1830     0.7670    -0.8700 c3         1 1J6      -0.064700
     20 C24          6.0920     1.3150    -1.7770 c3         1 1J6      -0.076400
     21 C25          5.0670     0.2510    -2.1060 c3         1 1J6      -0.093900
     22 C26          8.2090     1.8430    -0.5340 c3         1 1J6      -0.021300
     23 C27          8.9790     2.2420    -1.6910 c1         1 1J6       0.209700
     24 N28          9.6060     2.5670    -2.6150 n1         1 1J6      -0.374800
     25 H1          -0.2960    -0.8540     0.7570 hc         1 1J6       0.055700
     26 H2          -0.5140    -0.1110    -0.8830 hc         1 1J6       0.055700
     27 H3          -0.3640     0.9510     0.5880 hc         1 1J6       0.055700
     28 H4           1.7640     0.9700    -0.7130 h1         1 1J6       0.083700
     29 H5           1.8770    -0.3630     1.7780 ho         1 1J6       0.412000
     30 H6           0.9990    -4.9040    -2.1590 h4         1 1J6       0.037100
     31 H8           6.6170    -2.2800    -2.2630 ha         1 1J6       0.156000
     32 H9           7.4410    -4.5650    -3.4850 h4         1 1J6       0.169000
     33 H10          3.9420     0.5390    -0.2740 h1         1 1J6       0.086700
     34 H11          6.0520    -1.7410    -0.3420 hc         1 1J6       0.059450
     35 H12          5.0840    -1.1890     1.0830 hc         1 1J6       0.059450
     36 H13          6.0810     1.0660     0.9770 hc         1 1J6       0.049950
     37 H14          7.3720    -0.1990     1.0670 hc         1 1J6       0.049950
     38 H15          7.7030    -0.0780    -1.4020 hc         1 1J6       0.060700
     39 H16          5.5890     2.1830    -1.2760 hc         1 1J6       0.049950
     40 H17          6.5500     1.6930    -2.7280 hc         1 1J6       0.049950
     41 H18          5.5450    -0.5700    -2.7010 hc         1 1J6       0.059450
     42 H19          4.2610     0.7010    -2.7420 hc         1 1J6       0.059450
     43 H20          7.6890     2.7470    -0.1100 hc         1 1J6       0.075700
     44 H21          8.9150     1.4550     0.2520 hc         1 1J6       0.075700
     45 H7           5.4270    -6.0910    -3.7080 hn         1 1J6       0.310700
@<TRIPOS>BOND
     1     1     2 1   
     2     1    25 1   
     3     1    26 1   
     4     1    27 1   
     5     2     3 1   
     6     2     4 1   
     7     2    28 1   
     8     3    29 1   
     9     4     5 1   
    10     4     8 2   
    11     5     6 1   
    12     5    16 1   
    13     6     7 ar  
    14     6    12 ar  
    15     7     8 1   
    16     7     9 ar  
    17     9    10 ar  
    18     9    30 1   
    19    10    11 ar  
    20    11    12 ar  
    21    11    15 1   
    22    12    13 1   
    23    13    14 2   
    24    13    31 1   
    25    14    15 1   
    26    14    32 1   
    27    15    45 1   
    28    16    17 1   
    29    16    21 1   
    30    16    33 1   
    31    17    18 1   
    32    17    34 1   
    33    17    35 1   
    34    18    19 1   
    35    18    36 1   
    36    18    37 1   
    37    19    20 1   
    38    19    22 1   
    39    19    38 1   
    40    20    21 1   
    41    20    39 1   
    42    20    40 1   
    43    21    41 1   
    44    21    42 1   
    45    22    23 1   
    46    22    43 1   
    47    22    44 1   
    48    23    24 3   
@<TRIPOS>SUBSTRUCTURE
     1 1J6         1 TEMP              0 ****  ****    0 ROOT
