@<TRIPOS>MOLECULE
molecule
   51    54     1     0     0
SMALL
bcc


@<TRIPOS>ATOM
      1 C1           0.0000     0.0000     0.0000 ca         1 1J9      -0.111000
      2 C2           1.3830     0.0000     0.0000 ca         1 1J9      -0.133000
      3 C3           2.0770     0.0000     1.1960 ca         1 1J9      -0.110000
      4 C4           1.3900    -0.0020     2.3950 ca         1 1J9       0.017400
      5 C5           0.0010    -0.0020     2.3980 ca         1 1J9       0.044800
      6 C6          -0.6920    -0.0020     1.1950 ca         1 1J9      -0.142000
      7 N1          -0.7000    -0.0050     3.6120 na         1 1J9       0.065100
      8 C7          -2.0580    -0.0100     3.7530 ca         1 1J9       0.525800
      9 C8          -2.3170    -0.0110     5.1380 ca         1 1J9      -0.495500
     10 C9          -1.0660    -0.0060     5.7930 cc         1 1J9       0.425800
     11 N2          -0.1260    -0.0070     4.8900 nd         1 1J9      -0.480100
     12 C10         -3.6570    -0.0170     5.5640 ca         1 1J9       0.758600
     13 N3          -4.6130    -0.0210     4.6450 nb         1 1J9      -0.871000
     14 C11         -4.3220    -0.0200     3.3550 ca         1 1J9       0.757900
     15 N4          -3.0860    -0.0150     2.9060 nb         1 1J9      -0.792000
     16 O1          -3.9640    -0.0180     6.8830 os         1 1J9      -0.377100
     17 C12         -5.3520    -0.0240     7.2260 c3         1 1J9       0.078100
     18 C13         -5.8410    -1.4680     7.3480 c3         1 1J9       0.120400
     19 O2          -5.1780    -2.1040     8.4430 os         1 1J9      -0.401600
     20 C14         -5.5650    -3.4650     8.6450 c3         1 1J9       0.141400
     21 C15         -4.7970    -4.0420     9.8360 c3         1 1J9       0.144400
     22 O3          -5.1850    -3.3570    11.0290 oh         1 1J9      -0.597800
     23 C16         -5.5470     0.6860     8.5400 c          1 1J9       0.655100
     24 O4          -4.5920     1.1500     9.1260 o          1 1J9      -0.490100
     25 N5          -6.7830     0.8040     9.0660 ns         1 1J9      -0.550400
     26 C17         -6.9530     1.3660    10.3310 ca         1 1J9       0.566200
     27 C18         -8.2160     1.3880    10.9100 ca         1 1J9      -0.290300
     28 C19         -8.3700     1.9490    12.1670 ca         1 1J9      -0.059000
     29 C20         -7.2500     2.4690    12.8010 ca         1 1J9      -0.136900
     30 C21         -6.0250     2.4120    12.1660 ca         1 1J9       0.468200
     31 N6          -5.9080     1.8680    10.9700 nb         1 1J9      -0.669000
     32 Cl1         -7.3890     3.1830    14.3770 cl         1 1J9      -0.102400
     33 Cl2          2.2620    -0.0050     3.8960 cl         1 1J9      -0.068400
     34 H1          -0.5410     0.0000    -0.9390 ha         1 1J9       0.140000
     35 H2           1.9230     0.0020    -0.9390 ha         1 1J9       0.138000
     36 H3           3.1600     0.0000     1.1930 ha         1 1J9       0.149000
     37 H4          -1.7760    -0.0020     1.1930 ha         1 1J9       0.180000
     38 H5          -0.9130    -0.0070     6.8650 h4         1 1J9       0.081800
     39 H6          -5.1350    -0.0240     2.6390 h5         1 1J9       0.063100
     40 H7          -5.9160     0.4850     6.4540 h1         1 1J9       0.096700
     41 H8          -5.6200    -2.0030     6.4320 h1         1 1J9       0.037700
     42 H9          -6.9110    -1.4740     7.5200 h1         1 1J9       0.037700
     43 H10         -5.3390    -4.0410     7.7560 h1         1 1J9       0.031200
     44 H11         -6.6290    -3.5120     8.8440 h1         1 1J9       0.031200
     45 H12         -3.7340    -3.9150     9.6760 h1         1 1J9       0.032200
     46 H13         -5.0240    -5.0970     9.9350 h1         1 1J9       0.032200
     47 H14         -4.7980    -3.7830    11.7760 ho         1 1J9       0.402000
     48 H15         -7.5790     0.4920     8.5460 hn         1 1J9       0.327500
     49 H16         -9.0680     0.9720    10.3860 ha         1 1J9       0.139000
     50 H17         -9.3420     1.9800    12.6440 ha         1 1J9       0.151000
     51 H18         -5.1480     2.8150    12.6580 h4         1 1J9       0.042100
@<TRIPOS>BOND
     1     1     6 ar  
     2     1     2 ar  
     3     6     5 ar  
     4     2     3 ar  
     5    15    14 ar  
     6    15     8 ar  
     7    14    13 ar  
     8     5     7 1   
     9     5     4 ar  
    10    13    12 ar  
    11     8     7 1   
    12     8     9 ar  
    13     3     4 ar  
    14    22    21 1   
    15     7    11 1   
    16     4    33 1   
    17    12     9 ar  
    18    12    16 1   
    19     9    10 1   
    20    21    20 1   
    21    11    10 2   
    22    19    20 1   
    23    19    18 1   
    24    17    16 1   
    25    17    18 1   
    26    17    23 1   
    27    25    23 1   
    28    25    26 1   
    29    23    24 2   
    30    31    26 ar  
    31    31    30 ar  
    32    26    27 ar  
    33    30    29 ar  
    34    27    28 ar  
    35    29    28 ar  
    36    29    32 1   
    37     1    34 1   
    38     2    35 1   
    39     3    36 1   
    40     6    37 1   
    41    10    38 1   
    42    14    39 1   
    43    17    40 1   
    44    18    41 1   
    45    18    42 1   
    46    20    43 1   
    47    20    44 1   
    48    21    45 1   
    49    21    46 1   
    50    22    47 1   
    51    25    48 1   
    52    27    49 1   
    53    28    50 1   
    54    30    51 1   
@<TRIPOS>SUBSTRUCTURE
     1 1J9         1 TEMP              0 ****  ****    0 ROOT
