@<TRIPOS>MOLECULE
1J9
   51    54     1     0     0
SMALL
bcc


@<TRIPOS>ATOM
      1 C1           0.7370     0.4190    -0.4190 ca         1 1J9      -0.123000
      2 C2           1.9890    -0.1690    -0.5960 ca         1 1J9      -0.116000
      3 C3           2.6210    -0.7960     0.4740 ca         1 1J9      -0.123000
      4 C4           2.0090    -0.8400     1.7310 ca         1 1J9       0.028400
      5 C5           0.7340    -0.2580     1.9120 ca         1 1J9       0.028800
      6 C6           0.1050     0.3750     0.8190 ca         1 1J9      -0.105000
      7 N1           0.0740    -0.2910     3.1720 na         1 1J9       0.061100
      8 C7          -0.4950     0.8290     3.8130 ca         1 1J9       0.471800
      9 C8          -1.0340     0.3250     5.0740 ca         1 1J9      -0.451500
     10 C9          -0.7240    -1.0870     5.0590 cc         1 1J9       0.402800
     11 N2          -0.0740    -1.4100     3.9270 nd         1 1J9      -0.485100
     12 C10         -1.6540     1.2840     5.9060 ca         1 1J9       0.740600
     13 N3          -1.7450     2.5860     5.5440 nb         1 1J9      -0.787000
     14 C11         -1.1990     2.9240     4.3340 ca         1 1J9       0.692900
     15 N4          -0.5770     2.1410     3.4280 nb         1 1J9      -0.707000
     16 O1          -2.1790     0.8060     7.0870 os         1 1J9      -0.418100
     17 C12         -2.7340     1.7600     8.0020 c3         1 1J9       0.075100
     18 C13         -3.4550     0.8990     9.0500 c3         1 1J9       0.127400
     19 O2          -4.3650     1.7760     9.7100 os         1 1J9      -0.450600
     20 C14         -5.1290     1.1110    10.7180 c3         1 1J9       0.089400
     21 C15         -5.8840     2.2040    11.4690 c3         1 1J9       0.127400
     22 O3          -5.0530     2.8670    12.3960 oh         1 1J9      -0.594800
     23 C16         -1.6070     2.5870     8.6390 c          1 1J9       0.656100
     24 O4          -0.4210     2.3980     8.3280 o          1 1J9      -0.565100
     25 N5          -2.0360     3.5420     9.5500 ns         1 1J9      -0.542400
     26 C17         -1.2080     4.3620    10.3420 ca         1 1J9       0.528200
     27 C18          0.1560     4.6020    10.0170 ca         1 1J9      -0.249300
     28 C19          0.9050     5.4480    10.8310 ca         1 1J9      -0.066000
     29 C20          0.2990     6.0410    11.9420 ca         1 1J9      -0.137900
     30 C21         -1.0590     5.7550    12.1980 ca         1 1J9       0.437200
     31 N6          -1.8020     4.9450    11.4390 nb         1 1J9      -0.715000
     32 Cl1          1.1600     7.0790    12.9630 cl         1 1J9      -0.073400
     33 Cl2          2.8370    -1.5890     3.0070 cl         1 1J9      -0.060400
     34 H1           0.2390     0.9200    -1.2630 ha         1 1J9       0.143000
     35 H2           2.4810    -0.1370    -1.5790 ha         1 1J9       0.142000
     36 H3           3.6120    -1.2570     0.3360 ha         1 1J9       0.152000
     37 H4          -0.8830     0.8460     0.9440 ha         1 1J9       0.157000
     38 H5          -0.9580    -1.8240     5.8310 h4         1 1J9       0.067800
     39 H6          -1.2820     4.0000     4.0680 h5         1 1J9       0.061100
     40 H7          -3.4670     2.4360     7.4800 h1         1 1J9       0.110700
     41 H8          -2.7290     0.4670     9.7870 h1         1 1J9       0.059700
     42 H9          -4.0170     0.0710     8.5430 h1         1 1J9       0.059700
     43 H10         -4.4460     0.5530    11.4110 h1         1 1J9       0.047700
     44 H11         -5.8410     0.3990    10.2270 h1         1 1J9       0.047700
     45 H12         -6.3300     2.9340    10.7420 h1         1 1J9       0.059200
     46 H13         -6.6940     1.7370    12.0910 h1         1 1J9       0.059200
     47 H14         -4.3620     3.3200    11.8930 ho         1 1J9       0.414000
     48 H15         -3.0100     3.5300     9.7870 hn         1 1J9       0.344500
     49 H16          0.6220     4.1270     9.1390 ha         1 1J9       0.185000
     50 H17          1.9620     5.6440    10.5940 ha         1 1J9       0.156000
     51 H18         -1.5800     6.2010    13.0670 h4         1 1J9       0.038100
@<TRIPOS>BOND
     1     1     2 ar  
     2     1     6 ar  
     3     1    34 1   
     4     2     3 ar  
     5     2    35 1   
     6     3     4 ar  
     7     3    36 1   
     8     4     5 ar  
     9     4    33 1   
    10     5     6 ar  
    11     5     7 1   
    12     6    37 1   
    13     7     8 1   
    14     7    11 1   
    15     8     9 ar  
    16     8    15 ar  
    17     9    10 1   
    18     9    12 ar  
    19    10    11 2   
    20    10    38 1   
    21    12    13 ar  
    22    12    16 1   
    23    13    14 ar  
    24    14    15 ar  
    25    14    39 1   
    26    16    17 1   
    27    17    18 1   
    28    17    23 1   
    29    17    40 1   
    30    18    19 1   
    31    18    41 1   
    32    18    42 1   
    33    19    20 1   
    34    20    21 1   
    35    20    43 1   
    36    20    44 1   
    37    21    22 1   
    38    21    45 1   
    39    21    46 1   
    40    22    47 1   
    41    23    24 2   
    42    23    25 1   
    43    25    26 1   
    44    25    48 1   
    45    26    27 ar  
    46    26    31 ar  
    47    27    28 ar  
    48    27    49 1   
    49    28    29 ar  
    50    28    50 1   
    51    29    30 ar  
    52    29    32 1   
    53    30    31 ar  
    54    30    51 1   
@<TRIPOS>SUBSTRUCTURE
     1 1J9         1 TEMP              0 ****  ****    0 ROOT
