@<TRIPOS>MOLECULE
1J9
   51    54     1     0     0
SMALL
bcc


@<TRIPOS>ATOM
      1 C1           0.0000     0.0000     0.0000 ca         1 1J9      -0.086000
      2 C2           1.3830     0.0000     0.0000 ca         1 1J9      -0.094000
      3 C3           2.0770     0.0000     1.1960 ca         1 1J9      -0.089000
      4 C4           1.3900    -0.0020     2.3950 ca         1 1J9      -0.050600
      5 C5           0.0010    -0.0020     2.3980 ca         1 1J9      -0.141200
      6 C6          -0.6920    -0.0020     1.1950 ca         1 1J9      -0.115000
      7 N1          -0.7000    -0.0050     3.6120 na         1 1J9       0.540100
      8 C7          -2.0580    -0.0100     3.7530 ca         1 1J9       0.314800
      9 C8          -2.3170    -0.0110     5.1380 ca         1 1J9      -0.527500
     10 C9          -1.0660    -0.0060     5.7930 cc         1 1J9       0.507800
     11 N2          -0.1260    -0.0070     4.8900 nd         1 1J9      -0.656100
     12 C10         -3.6570    -0.0170     5.5640 ca         1 1J9       0.743600
     13 N3          -4.6130    -0.0210     4.6450 nb         1 1J9      -0.780000
     14 C11         -4.3220    -0.0200     3.3550 ca         1 1J9       0.709900
     15 N4          -3.0860    -0.0150     2.9060 nb         1 1J9      -0.675000
     16 O1          -3.9640    -0.0180     6.8830 os         1 1J9      -0.359100
     17 C12         -5.3520    -0.0240     7.2260 c3         1 1J9       0.097100
     18 C13         -5.8410    -1.4680     7.3480 c3         1 1J9       0.186400
     19 O2          -5.1780    -2.1040     8.4430 os         1 1J9      -0.388600
     20 C14         -5.5650    -3.4650     8.6450 c3         1 1J9       0.205400
     21 C15         -4.7970    -4.0420     9.8360 c3         1 1J9       0.222400
     22 O3          -5.1850    -3.3570    11.0290 oh         1 1J9      -0.582800
     23 C16         -5.5470     0.6860     8.5400 c          1 1J9       0.544100
     24 O4          -4.5920     1.1500     9.1260 o          1 1J9      -0.536100
     25 N5          -6.7830     0.8040     9.0660 ns         1 1J9      -0.112400
     26 C17         -6.9530     1.3660    10.3310 ca         1 1J9       0.371200
     27 C18         -8.2160     1.3880    10.9100 ca         1 1J9      -0.262300
     28 C19         -8.3700     1.9490    12.1670 ca         1 1J9      -0.037000
     29 C20         -7.2500     2.4690    12.8010 ca         1 1J9      -0.195900
     30 C21         -6.0250     2.4120    12.1660 ca         1 1J9       0.440200
     31 N6          -5.9080     1.8680    10.9700 nb         1 1J9      -0.544000
     32 Cl1         -7.3890     3.1830    14.3770 cl         1 1J9      -0.012400
     33 Cl2          2.2620    -0.0050     3.8960 cl         1 1J9       0.035600
     34 H1          -0.5410     0.0000    -0.9390 ha         1 1J9       0.108000
     35 H2           1.9230     0.0020    -0.9390 ha         1 1J9       0.106000
     36 H3           3.1600     0.0000     1.1930 ha         1 1J9       0.116000
     37 H4          -1.7760    -0.0020     1.1930 ha         1 1J9       0.154000
     38 H5          -0.9130    -0.0070     6.8650 h4         1 1J9       0.028800
     39 H6          -5.1350    -0.0240     2.6390 h5         1 1J9      -0.002900
     40 H7          -5.9160     0.4850     6.4540 h1         1 1J9       0.057700
     41 H8          -5.6200    -2.0030     6.4320 h1         1 1J9       0.002200
     42 H9          -6.9110    -1.4740     7.5200 h1         1 1J9       0.002200
     43 H10         -5.3390    -4.0410     7.7560 h1         1 1J9      -0.005800
     44 H11         -6.6290    -3.5120     8.8440 h1         1 1J9      -0.005800
     45 H12         -3.7340    -3.9150     9.6760 h1         1 1J9      -0.006800
     46 H13         -5.0240    -5.0970     9.9350 h1         1 1J9      -0.006800
     47 H14         -4.7980    -3.7830    11.7760 ho         1 1J9       0.389000
     48 H15         -7.5790     0.4920     8.5460 hn         1 1J9       0.167500
     49 H16         -9.0680     0.9720    10.3860 ha         1 1J9       0.116000
     50 H17         -9.3420     1.9800    12.6440 ha         1 1J9       0.117000
     51 H18         -5.1480     2.8150    12.6580 h4         1 1J9      -0.008900
@<TRIPOS>BOND
     1     1     2 ar  
     2     1     6 ar  
     3     1    34 1   
     4     2     3 ar  
     5     2    35 1   
     6     3     4 ar  
     7     3    36 1   
     8     4     5 ar  
     9     4    33 1   
    10     5     6 ar  
    11     5     7 1   
    12     6    37 1   
    13     7     8 1   
    14     7    11 1   
    15     8     9 ar  
    16     8    15 ar  
    17     9    10 1   
    18     9    12 ar  
    19    10    11 2   
    20    10    38 1   
    21    12    13 ar  
    22    12    16 1   
    23    13    14 ar  
    24    14    15 ar  
    25    14    39 1   
    26    16    17 1   
    27    17    18 1   
    28    17    23 1   
    29    17    40 1   
    30    18    19 1   
    31    18    41 1   
    32    18    42 1   
    33    19    20 1   
    34    20    21 1   
    35    20    43 1   
    36    20    44 1   
    37    21    22 1   
    38    21    45 1   
    39    21    46 1   
    40    22    47 1   
    41    23    24 2   
    42    23    25 1   
    43    25    26 1   
    44    25    48 1   
    45    26    27 ar  
    46    26    31 ar  
    47    27    28 ar  
    48    27    49 1   
    49    28    29 ar  
    50    28    50 1   
    51    29    30 ar  
    52    29    32 1   
    53    30    31 ar  
    54    30    51 1   
@<TRIPOS>SUBSTRUCTURE
     1 1J9         1 TEMP              0 ****  ****    0 ROOT
