@<TRIPOS>MOLECULE
molecule
   67    72     1     0     0
SMALL
bcc


@<TRIPOS>ATOM
      1 C            0.0000     0.0000     0.0000 ca         1 1JC      -0.101300
      2 C1           1.3990     0.0000     0.0000 ca         1 1JC       0.430200
      3 N            2.0830     0.0000     1.1180 nb         1 1JC      -0.677000
      4 C2           1.4890    -0.0130     2.3170 ca         1 1JC       0.485100
      5 C3           0.0800     0.0340     2.3930 ca         1 1JC      -0.253900
      6 C4          -0.6760     0.0220     1.2170 ca         1 1JC      -0.059000
      7 C5           2.3040    -0.1020     3.5160 cc         1 1JC      -0.197800
      8 C6           2.1210     0.5330     4.6620 cd         1 1JC      -0.109200
      9 C7           1.0620     1.4720     4.9910 ca         1 1JC      -0.012800
     10 C8          -0.2680     1.2520     4.5760 ca         1 1JC      -0.142600
     11 C9          -0.5880     0.1150     3.7000 c          1 1JC       0.600300
     12 C10          1.3570     2.6210     5.7430 ca         1 1JC      -0.116000
     13 C11          0.3540     3.4900     6.0960 ca         1 1JC      -0.095000
     14 C12         -0.9620     3.2460     5.7210 ca         1 1JC      -0.093300
     15 C13         -1.2760     2.1380     4.9680 ca         1 1JC      -0.070000
     16 C14         -2.0500     4.2000     6.1410 c3         1 1JC      -0.173300
     17 S           -2.2460     5.4870     4.8770 s6         1 1JC       1.326900
     18 N15         -3.4580     6.4560     5.4580 n7         1 1JC      -0.909100
     19 O           -1.3840    -0.7380     4.0490 o          1 1JC      -0.502100
     20 O16         -1.1050     6.3340     4.8460 o          1 1JC      -0.618300
     21 O17         -2.7810     4.9350     3.6810 o          1 1JC      -0.618300
     22 C18         -0.7530    -0.0150    -1.2780 cd         1 1JC      -0.274300
     23 C19         -0.2130    -0.0430    -2.5320 cc         1 1JC      -0.091300
     24 N20         -1.2320    -0.0540    -3.4140 na         1 1JC       0.079400
     25 N21         -2.4330    -0.0350    -2.6960 nc         1 1JC      -0.509800
     26 C22         -2.1550    -0.0110    -1.4200 cd         1 1JC       0.352200
     27 C23         -3.2570     7.2210     6.6900 c3         1 1JC       0.190500
     28 C24         -4.3250     8.2780     6.8050 ca         1 1JC       0.405600
     29 N25         -4.1600     9.4390     6.2010 nb         1 1JC      -0.671000
     30 C26         -5.0680    10.3930     6.2740 ca         1 1JC       0.422200
     31 C27         -6.2340    10.2050     6.9930 ca         1 1JC      -0.248300
     32 C28         -6.4420     8.9970     7.6410 ca         1 1JC      -0.093000
     33 C29         -5.4680     8.0170     7.5360 ca         1 1JC      -0.241300
     34 C30         -1.1050    -0.0840    -4.8730 c3         1 1JC       0.079000
     35 C31         -0.9410    -1.5310    -5.3440 c3         1 1JC      -0.094900
     36 C32         -0.7470    -1.5510    -6.8620 c3         1 1JC       0.160300
     37 N33          0.4430    -0.7650    -7.2150 n7         1 1JC      -0.821200
     38 C34          0.2900     0.6400    -6.8150 c3         1 1JC       0.160300
     39 C35          0.1260     0.7230    -5.2960 c3         1 1JC      -0.094900
     40 H1           1.9290    -0.0170    -0.9450 h4         1 1JC       0.022100
     41 H2          -1.7590     0.0220     1.2530 ha         1 1JC       0.151000
     42 H3           3.1600    -0.7650     3.4660 ha         1 1JC       0.145000
     43 H4           2.8430     0.3300     5.4440 ha         1 1JC       0.136000
     44 H5           2.3780     2.8240     6.0420 ha         1 1JC       0.143000
     45 H6           0.5880     4.3660     6.6890 ha         1 1JC       0.142000
     46 H7          -2.3030     1.9520     4.6780 ha         1 1JC       0.150000
     47 H8          -2.9820     3.6590     6.2530 h1         1 1JC       0.102200
     48 H9          -1.7830     4.6590     7.0850 h1         1 1JC       0.102200
     49 H10         -4.3240     6.5240     4.9620 hn         1 1JC       0.461800
     50 H11          0.8430    -0.0520    -2.7740 h4         1 1JC       0.175000
     51 H12         -2.8760     0.0080    -0.6120 h4         1 1JC       0.053100
     52 H13         -2.2820     7.6940     6.6660 h1         1 1JC       0.057700
     53 H14         -3.3140     6.5550     7.5420 h1         1 1JC       0.057700
     54 H15         -4.8990    11.3340     5.7650 h4         1 1JC       0.028100
     55 H16         -6.9750    10.9930     7.0510 ha         1 1JC       0.141000
     56 H17         -7.3470     8.8210     8.2100 ha         1 1JC       0.141000
     57 H18         -5.5970     7.0610     8.0300 ha         1 1JC       0.139000
     58 H19         -1.9900     0.3450    -5.3270 h1         1 1JC       0.083700
     59 H20         -0.0750    -1.9710    -4.8640 hc         1 1JC       0.061950
     60 H21         -1.8290    -2.0960    -5.0870 hc         1 1JC       0.061950
     61 H22         -1.6180    -1.1210    -7.3410 h1         1 1JC       0.038450
     62 H23         -0.6140    -2.5740    -7.1940 h1         1 1JC       0.038450
     63 H24          0.5950    -0.8160    -8.2030 hn         1 1JC       0.359800
     64 H26         -0.5880     1.0570    -7.2940 h1         1 1JC       0.038450
     65 H27          1.1700     1.1970    -7.1130 h1         1 1JC       0.038450
     66 H28         -0.0040     1.7580    -5.0040 hc         1 1JC       0.061950
     67 H29          1.0070     0.3150    -4.8160 hc         1 1JC       0.061950
@<TRIPOS>BOND
     1    38    37 1
     2    38    39 1
     3    37    36 1
     4    39    34 1
     5    36    35 1
     6    34    35 1
     7    34    24 1
     8    24    23 1
     9    24    25 1
    10    23    22 2
    11    25    26 2
    12    22    26 1
    13    22     1 1
    14     2     1 ar
    15     2     3 ar
    16     1     6 ar
    17     3     4 ar
    18     6     5 ar
    19     4     7 1
    20     4     5 ar
    21     7     8 2
    22     5    11 1
    23    21    17 2
    24     8     9 1
    25    20    17 2
    26    11    10 1
    27    11    19 2
    28     9    10 ar
    29     9    12 ar
    30    10    15 ar
    31    17    18 1
    32    17    16 1
    33    12    13 ar
    34    15    14 ar
    35    13    14 ar
    36    18    27 1
    37    14    16 1
    38    27    28 1
    39    28    29 ar
    40    28    33 ar
    41    29    30 ar
    42    33    32 ar
    43    30    31 ar
    44    32    31 ar
    45     2    40 1
    46     6    41 1
    47     7    42 1
    48     8    43 1
    49    12    44 1
    50    13    45 1
    51    15    46 1
    52    16    47 1
    53    16    48 1
    54    18    49 1
    55    23    50 1
    56    26    51 1
    57    27    52 1
    58    27    53 1
    59    30    54 1
    60    31    55 1
    61    32    56 1
    62    33    57 1
    63    34    58 1
    64    35    59 1
    65    35    60 1
    66    36    61 1
    67    36    62 1
    68    37    63 1
    69    38    64 1
    70    38    65 1
    71    39    66 1
    72    39    67 1
@<TRIPOS>SUBSTRUCTURE
     1 1JC         1 TEMP              0 ****  ****    0 ROOT
