@<TRIPOS>MOLECULE
1JC
   67    72     1     0     0
SMALL
bcc


@<TRIPOS>ATOM
      1 C            0.0000     0.0000     0.0000 ca         1 1JC      -0.086300
      2 C1           1.3990     0.0000     0.0000 ca         1 1JC       0.407200
      3 N            2.0830     0.0000     1.1180 nb         1 1JC      -0.567000
      4 C2           1.4890    -0.0130     2.3170 ca         1 1JC       0.444100
      5 C3           0.0800     0.0340     2.3930 ca         1 1JC      -0.256900
      6 C4          -0.6760     0.0220     1.2170 ca         1 1JC      -0.035000
      7 C5           2.3040    -0.1020     3.5160 cc         1 1JC      -0.177800
      8 C6           2.1210     0.5330     4.6620 cd         1 1JC      -0.082200
      9 C7           1.0620     1.4720     4.9910 ca         1 1JC      -0.007800
     10 C8          -0.2680     1.2520     4.5760 ca         1 1JC      -0.151600
     11 C9          -0.5880     0.1150     3.7000 c          1 1JC       0.662300
     12 C10          1.3570     2.6210     5.7430 ca         1 1JC      -0.090000
     13 C11          0.3540     3.4900     6.0960 ca         1 1JC      -0.068000
     14 C12         -0.9620     3.2460     5.7210 ca         1 1JC      -0.093300
     15 C13         -1.2760     2.1380     4.9680 ca         1 1JC      -0.040000
     16 C14         -2.0500     4.2000     6.1410 c3         1 1JC       0.051700
     17 S           -2.2460     5.4870     4.8770 s6         1 1JC       0.952900
     18 N15         -3.4580     6.4560     5.4580 n7         1 1JC      -0.590100
     19 O           -1.3840    -0.7380     4.0490 o          1 1JC      -0.542100
     20 O16         -1.1050     6.3340     4.8460 o          1 1JC      -0.575300
     21 O17         -2.7810     4.9350     3.6810 o          1 1JC      -0.575300
     22 C18         -0.7530    -0.0150    -1.2780 cc         1 1JC      -0.276300
     23 C19         -0.2130    -0.0430    -2.5320 cd         1 1JC      -0.236300
     24 N20         -1.2320    -0.0540    -3.4140 na         1 1JC       0.510400
     25 N21         -2.4330    -0.0350    -2.6960 nd         1 1JC      -0.648800
     26 C22         -2.1550    -0.0110    -1.4200 cc         1 1JC       0.413200
     27 C23         -3.2570     7.2210     6.6900 c3         1 1JC       0.184500
     28 C24         -4.3250     8.2780     6.8050 ca         1 1JC       0.346600
     29 N25         -4.1600     9.4390     6.2010 nb         1 1JC      -0.550000
     30 C26         -5.0680    10.3930     6.2740 ca         1 1JC       0.403200
     31 C27         -6.2340    10.2050     6.9930 ca         1 1JC      -0.214300
     32 C28         -6.4420     8.9970     7.6410 ca         1 1JC      -0.070000
     33 C29         -5.4680     8.0170     7.5360 ca         1 1JC      -0.206300
     34 C30         -1.1050    -0.0840    -4.8730 c3         1 1JC      -0.043000
     35 C31         -0.9410    -1.5310    -5.3440 c3         1 1JC      -0.041900
     36 C32         -0.7470    -1.5510    -6.8620 c3         1 1JC       0.152800
     37 N33          0.4430    -0.7650    -7.2150 n7         1 1JC      -0.582200
     38 C34          0.2900     0.6400    -6.8150 c3         1 1JC       0.152800
     39 C35          0.1260     0.7230    -5.2960 c3         1 1JC      -0.041900
     40 H1           1.9290    -0.0170    -0.9450 h4         1 1JC      -0.019900
     41 H2          -1.7590     0.0220     1.2530 ha         1 1JC       0.123000
     42 H3           3.1600    -0.7650     3.4660 ha         1 1JC       0.110000
     43 H4           2.8430     0.3300     5.4440 ha         1 1JC       0.104000
     44 H5           2.3780     2.8240     6.0420 ha         1 1JC       0.113000
     45 H6           0.5880     4.3660     6.6890 ha         1 1JC       0.113000
     46 H7          -2.3030     1.9520     4.6780 ha         1 1JC       0.121000
     47 H8          -2.9820     3.6590     6.2530 h1         1 1JC       0.069200
     48 H9          -1.7830     4.6590     7.0850 h1         1 1JC       0.069200
     49 H10         -4.3240     6.5240     4.9620 hn         1 1JC       0.355800
     50 H11          0.8430    -0.0520    -2.7740 h4         1 1JC       0.155000
     51 H12         -2.8760     0.0080    -0.6120 h4         1 1JC       0.009100
     52 H13         -2.2820     7.6940     6.6660 h1         1 1JC       0.020200
     53 H14         -3.3140     6.5550     7.5420 h1         1 1JC       0.020200
     54 H15         -4.8990    11.3340     5.7650 h4         1 1JC      -0.016900
     55 H16         -6.9750    10.9930     7.0510 ha         1 1JC       0.114000
     56 H17         -7.3470     8.8210     8.2100 ha         1 1JC       0.110000
     57 H18         -5.5970     7.0610     8.0300 ha         1 1JC       0.114000
     58 H19         -1.9900     0.3450    -5.3270 h1         1 1JC       0.057700
     59 H20         -0.0750    -1.9710    -4.8640 hc         1 1JC       0.031950
     60 H21         -1.8290    -2.0960    -5.0870 hc         1 1JC       0.031950
     61 H22         -1.6180    -1.1210    -7.3410 h1         1 1JC       0.010200
     62 H23         -0.6140    -2.5740    -7.1940 h1         1 1JC       0.010200
     63 H24          0.5950    -0.8160    -8.2030 hn         1 1JC       0.256800
     64 H26         -0.5880     1.0570    -7.2940 h1         1 1JC       0.010200
     65 H27          1.1700     1.1970    -7.1130 h1         1 1JC       0.010200
     66 H28         -0.0040     1.7580    -5.0040 hc         1 1JC       0.031950
     67 H29          1.0070     0.3150    -4.8160 hc         1 1JC       0.031950
@<TRIPOS>BOND
     1     1     2 ar  
     2     1     6 ar  
     3     1    22 1   
     4     2     3 ar  
     5     2    40 1   
     6     3     4 ar  
     7     4     5 ar  
     8     4     7 1   
     9     5     6 ar  
    10     5    11 1   
    11     6    41 1   
    12     7     8 2   
    13     7    42 1   
    14     8     9 1   
    15     8    43 1   
    16     9    10 ar  
    17     9    12 ar  
    18    10    11 1   
    19    10    15 ar  
    20    11    19 2   
    21    12    13 ar  
    22    12    44 1   
    23    13    14 ar  
    24    13    45 1   
    25    14    15 ar  
    26    14    16 1   
    27    15    46 1   
    28    16    17 1   
    29    16    47 1   
    30    16    48 1   
    31    17    18 1   
    32    17    20 2   
    33    17    21 2   
    34    18    27 1   
    35    18    49 1   
    36    22    23 2   
    37    22    26 1   
    38    23    24 1   
    39    23    50 1   
    40    24    25 1   
    41    24    34 1   
    42    25    26 2   
    43    26    51 1   
    44    27    28 1   
    45    27    52 1   
    46    27    53 1   
    47    28    29 ar  
    48    28    33 ar  
    49    29    30 ar  
    50    30    31 ar  
    51    30    54 1   
    52    31    32 ar  
    53    31    55 1   
    54    32    33 ar  
    55    32    56 1   
    56    33    57 1   
    57    34    35 1   
    58    34    39 1   
    59    34    58 1   
    60    35    36 1   
    61    35    59 1   
    62    35    60 1   
    63    36    37 1   
    64    36    61 1   
    65    36    62 1   
    66    37    38 1   
    67    37    63 1   
    68    38    39 1   
    69    38    64 1   
    70    38    65 1   
    71    39    66 1   
    72    39    67 1   
@<TRIPOS>SUBSTRUCTURE
     1 1JC         1 TEMP              0 ****  ****    0 ROOT
