@<TRIPOS>MOLECULE
1JC
   68    73     1     0     0
SMALL
bcc


@<TRIPOS>ATOM
      1 C            0.0680    -0.3080     0.1290 ca         1 1JC      -0.066300
      2 C1           1.3760    -0.8540     0.0040 ca         1 1JC       0.415200
      3 N            2.2460    -0.9550     1.0100 nb         1 1JC      -0.646000
      4 C2           1.8630    -0.5370     2.2530 ca         1 1JC       0.453100
      5 C3           0.5760    -0.0020     2.4830 ca         1 1JC      -0.247900
      6 C4          -0.3130     0.1290     1.4020 ca         1 1JC      -0.072000
      7 C5           2.8750    -0.6210     3.3070 cc         1 1JC      -0.151800
      8 C6           2.6720    -0.8900     4.6050 cd         1 1JC      -0.152200
      9 C7           1.4140    -1.1500     5.2720 ca         1 1JC       0.051200
     10 C8           0.2110    -0.5180     4.9220 ca         1 1JC      -0.145600
     11 C9           0.1050     0.4540     3.8030 c          1 1JC       0.595300
     12 C10          1.4150    -2.0470     6.3620 ca         1 1JC      -0.123000
     13 C11          0.2570    -2.3090     7.0750 ca         1 1JC      -0.082000
     14 C12         -0.9450    -1.6720     6.7210 ca         1 1JC      -0.182300
     15 C13         -0.9550    -0.7630     5.6610 ca         1 1JC      -0.049000
     16 C14         -2.1780    -1.8960     7.5240 c3         1 1JC      -0.280300
     17 S           -3.0050    -3.2000     6.8640 s6         1 1JC       1.352900
     18 N15         -4.4570    -3.1970     8.0850 ny         1 1JC      -0.704900
     19 O           -0.4460     1.5470     3.9700 o          1 1JC      -0.497100
     20 O16         -3.6280    -2.9410     5.6610 o          1 1JC      -0.552800
     21 O17         -2.4500    -4.4330     7.1470 o          1 1JC      -0.552800
     22 C18         -0.8040    -0.2080    -0.9980 cc         1 1JC      -0.243300
     23 C19         -0.5170    -0.4730    -2.3560 cd         1 1JC      -0.109300
     24 N20         -1.6900    -0.2300    -3.0680 na         1 1JC       0.105400
     25 N21         -2.6920     0.1660    -2.2640 nd         1 1JC      -0.494800
     26 C22         -2.1990     0.1950    -1.0030 cc         1 1JC       0.314200
     27 C23         -5.7770    -3.2640     7.4140 c3         1 1JC       0.074500
     28 C24         -6.9690    -3.2550     8.3410 ca         1 1JC       0.334600
     29 N25         -6.7900    -2.9850     9.6590 nb         1 1JC      -0.710000
     30 C26         -7.8800    -2.9730    10.4430 ca         1 1JC       0.422200
     31 C27         -9.1830    -3.2220     9.9630 ca         1 1JC      -0.208300
     32 C28         -9.3520    -3.4970     8.6080 ca         1 1JC      -0.072000
     33 C29         -8.2290    -3.5180     7.7730 ca         1 1JC      -0.209300
     34 C30         -1.8170    -0.3770    -4.5220 c3         1 1JC       0.070000
     35 C31         -2.1880     0.9400    -5.2190 c3         1 1JC      -0.090400
     36 C32         -2.2240     0.7230    -6.7310 c3         1 1JC       0.164300
     37 N33         -3.1070    -0.3550    -7.1290 n7         1 1JC      -0.824200
     38 C34         -2.8520    -1.6030    -6.4400 c3         1 1JC       0.164300
     39 C35         -2.8360    -1.4540    -4.9190 c3         1 1JC      -0.090400
     40 H1           1.7360    -1.2220    -0.9750 h4         1 1JC       0.032100
     41 H2          -1.3010     0.5880     1.5640 ha         1 1JC       0.155000
     42 H3           3.9180    -0.4780     2.9570 ha         1 1JC       0.165000
     43 H4           3.5550    -0.9520     5.2710 ha         1 1JC       0.151000
     44 H5           2.3570    -2.5440     6.6470 ha         1 1JC       0.162000
     45 H6           0.2820    -3.0130     7.9220 ha         1 1JC       0.146000
     46 H7          -1.8750    -0.2160     5.3950 ha         1 1JC       0.155000
     47 H8          -2.7650    -0.9330     7.5300 h1         1 1JC       0.156200
     48 H9          -1.8660    -2.0500     8.5980 h1         1 1JC       0.156200
     49 H10         -4.4480    -2.3750     8.6910 hn         1 1JC       0.460800
     50 H11          0.4050    -0.7980    -2.8380 h4         1 1JC       0.182000
     51 H12         -2.8120     0.4910    -0.1520 h4         1 1JC       0.043100
     52 H13         -5.8040    -4.2110     6.7970 hx         1 1JC       0.114200
     53 H14         -5.8590    -2.3790     6.7130 hx         1 1JC       0.114200
     54 H15         -7.6990    -2.7510    11.5120 h4         1 1JC       0.045100
     55 H16        -10.0400    -3.1970    10.6530 ha         1 1JC       0.171000
     56 H17        -10.3530    -3.6970     8.1930 ha         1 1JC       0.167000
     57 H18         -8.3300    -3.7320     6.6990 ha         1 1JC       0.159000
     58 H19         -0.7930    -0.6990    -4.8830 h1         1 1JC       0.060700
     59 H20         -3.1880     1.2950    -4.8580 hc         1 1JC       0.068200
     60 H21         -1.4330     1.7340    -4.9890 hc         1 1JC       0.068200
     61 H22         -1.1630     0.5580    -7.0890 h1         1 1JC       0.035200
     62 H23         -2.6040     1.6650    -7.2190 h1         1 1JC       0.035200
     63 H24         -3.0690    -0.4890    -8.1210 hn         1 1JC       0.374800
     64 H26         -1.8740    -2.0740    -6.7580 h1         1 1JC       0.035200
     65 H27         -3.6790    -2.3160    -6.7210 h1         1 1JC       0.035200
     66 H28         -3.8560    -1.1700    -4.5500 hc         1 1JC       0.068200
     67 H29         -2.5630    -2.4410    -4.4660 hc         1 1JC       0.068200
     68 H152        -4.3800    -4.0080     8.7070 hn         1 1JC       0.460800
@<TRIPOS>BOND
     1     1     2 ar  
     2     1     6 ar  
     3     1    22 1   
     4     2     3 ar  
     5     2    40 1   
     6     3     4 ar  
     7     4     5 ar  
     8     4     7 1   
     9     5     6 ar  
    10     5    11 1   
    11     6    41 1   
    12     7     8 2   
    13     7    42 1   
    14     8     9 1   
    15     8    43 1   
    16     9    10 ar  
    17     9    12 ar  
    18    10    11 1   
    19    10    15 ar  
    20    11    19 2   
    21    12    13 ar  
    22    12    44 1   
    23    13    14 ar  
    24    13    45 1   
    25    14    15 ar  
    26    14    16 1   
    27    15    46 1   
    28    16    17 1   
    29    16    47 1   
    30    16    48 1   
    31    17    18 1   
    32    17    20 2   
    33    17    21 2   
    34    18    27 1   
    35    18    49 1   
    36    18    68 1   
    37    22    23 2   
    38    22    26 1   
    39    23    24 1   
    40    23    50 1   
    41    24    25 1   
    42    24    34 1   
    43    25    26 2   
    44    26    51 1   
    45    27    28 1   
    46    27    52 1   
    47    27    53 1   
    48    28    29 ar  
    49    28    33 ar  
    50    29    30 ar  
    51    30    31 ar  
    52    30    54 1   
    53    31    32 ar  
    54    31    55 1   
    55    32    33 ar  
    56    32    56 1   
    57    33    57 1   
    58    34    35 1   
    59    34    39 1   
    60    34    58 1   
    61    35    36 1   
    62    35    59 1   
    63    35    60 1   
    64    36    37 1   
    65    36    61 1   
    66    36    62 1   
    67    37    38 1   
    68    37    63 1   
    69    38    39 1   
    70    38    64 1   
    71    38    65 1   
    72    39    66 1   
    73    39    67 1   
@<TRIPOS>SUBSTRUCTURE
     1 1JC         1 TEMP              0 ****  ****    0 ROOT
