@<TRIPOS>MOLECULE
1JD
   55    58     1     0     0
SMALL
bcc


@<TRIPOS>ATOM
      1 C1           0.0000     0.0000     0.0000 c3         1 1JD       0.076200
      2 C2           1.5070     0.0000     0.0000 ca         1 1JD      -0.243600
      3 C3           2.2080     0.0000     1.1990 ca         1 1JD      -0.042000
      4 C4           3.5910    -0.0010     1.1530 ca         1 1JD      -0.267300
      5 C5           4.2280     0.0000    -0.0820 ca         1 1JD       0.358200
      6 N1           3.5240     0.0010    -1.2030 nb         1 1JD      -0.550000
      7 C6           2.2050    -0.0050    -1.1920 ca         1 1JD       0.432200
      8 N2           5.6210     0.0000    -0.1420 ns         1 1JD      -0.115400
      9 C7           6.2450    -0.1040    -1.3320 c          1 1JD       0.542100
     10 O1           5.5970    -0.1030    -2.3580 o          1 1JD      -0.540100
     11 C8           7.7460    -0.2190    -1.3890 c3         1 1JD       0.096100
     12 C9           8.3770     1.0180    -0.7470 c3         1 1JD       0.183400
     13 O2           7.8720     2.1950    -1.3820 os         1 1JD      -0.394600
     14 C10          8.4000     3.4130    -0.8540 c3         1 1JD       0.176100
     15 C11          9.6680     3.7940    -1.6230 c3         1 1JD      -0.015600
     16 C12          7.3610     4.5250    -1.0000 c3         1 1JD      -0.015600
     17 O3           8.1650    -0.3150    -2.7520 os         1 1JD      -0.361100
     18 C13          9.2970    -1.0170    -2.9980 ca         1 1JD       0.734600
     19 C14          9.7840    -1.1580    -4.3070 ca         1 1JD      -0.535500
     20 C15          9.3560    -0.7020    -5.6220 cc         1 1JD       0.518800
     21 N3          10.2170    -1.1440    -6.4940 nd         1 1JD      -0.654100
     22 N4          11.2170    -1.8810    -5.8500 na         1 1JD       0.399400
     23 C16         10.9670    -1.8990    -4.5080 ca         1 1JD       0.342800
     24 N5          11.5720    -2.4360    -3.4500 nb         1 1JD      -0.634000
     25 C17         11.0750    -2.2770    -2.2420 ca         1 1JD       0.699900
     26 N6           9.9740    -1.5850    -2.0080 nb         1 1JD      -0.775000
     27 C18         12.2990    -2.5000    -6.4790 ca         1 1JD       0.336800
     28 C19         12.4420    -2.4000    -7.8600 ca         1 1JD      -0.176900
     29 C20         13.5200    -3.0190    -8.4710 ca         1 1JD      -0.054000
     30 C21         14.4200    -3.7170    -7.6770 ca         1 1JD      -0.224300
     31 C22         14.2140    -3.7750    -6.3130 ca         1 1JD       0.419200
     32 N7          13.1810    -3.1720    -5.7570 nb         1 1JD      -0.552000
     33 Cl1         11.2850    -1.5140    -8.8030 cl         1 1JD       0.054600
     34 H1          -0.3610     0.9830    -0.2760 hc         1 1JD       0.007033
     35 H2          -0.3610    -0.2520     0.9900 hc         1 1JD       0.007033
     36 H3          -0.3610    -0.7310    -0.7130 hc         1 1JD       0.007033
     37 H4           1.6850    -0.0010     2.1470 ha         1 1JD       0.109000
     38 H5           4.1700    -0.0010     2.0690 ha         1 1JD       0.112000
     39 H6           1.6620    -0.0040    -2.1290 h4         1 1JD      -0.015900
     40 H7           6.1570     0.0610     0.7000 hn         1 1JD       0.167500
     41 H8           8.0610    -1.1050    -0.8510 h1         1 1JD       0.058700
     42 H9           9.4530     0.9770    -0.8660 h1         1 1JD       0.003700
     43 H10          8.1310     1.0430     0.3080 h1         1 1JD       0.003700
     44 H11          8.6400     3.2780     0.1940 h1         1 1JD      -0.000300
     45 H12          9.5290     3.5820    -2.6760 hc         1 1JD       0.011533
     46 H13          9.8660     4.8510    -1.4910 hc         1 1JD       0.011533
     47 H14         10.5060     3.2200    -1.2470 hc         1 1JD       0.011533
     48 H15          6.5060     4.3070    -0.3710 hc         1 1JD       0.011533
     49 H16          7.7980     5.4700    -0.7000 hc         1 1JD       0.011533
     50 H17          7.0420     4.5880    -2.0340 hc         1 1JD       0.011533
     51 H18          8.4790    -0.1030    -5.8360 h4         1 1JD       0.029800
     52 H19         11.5960    -2.7230    -1.4030 h5         1 1JD      -0.002900
     53 H20         13.6580    -2.9590    -9.5440 ha         1 1JD       0.121000
     54 H21         15.2730    -4.2140    -8.1240 ha         1 1JD       0.117000
     55 H22         14.9150    -4.3170    -5.6900 h4         1 1JD      -0.014900
@<TRIPOS>BOND
     1     1     2 1   
     2     1    34 1   
     3     1    35 1   
     4     1    36 1   
     5     2     3 ar  
     6     2     7 ar  
     7     3     4 ar  
     8     3    37 1   
     9     4     5 ar  
    10     4    38 1   
    11     5     6 ar  
    12     5     8 1   
    13     6     7 ar  
    14     7    39 1   
    15     8     9 1   
    16     8    40 1   
    17     9    10 2   
    18     9    11 1   
    19    11    12 1   
    20    11    17 1   
    21    11    41 1   
    22    12    13 1   
    23    12    42 1   
    24    12    43 1   
    25    13    14 1   
    26    14    15 1   
    27    14    16 1   
    28    14    44 1   
    29    15    45 1   
    30    15    46 1   
    31    15    47 1   
    32    16    48 1   
    33    16    49 1   
    34    16    50 1   
    35    17    18 1   
    36    18    19 ar  
    37    18    26 ar  
    38    19    20 1   
    39    19    23 ar  
    40    20    21 2   
    41    20    51 1   
    42    21    22 1   
    43    22    23 1   
    44    22    27 1   
    45    23    24 ar  
    46    24    25 ar  
    47    25    26 ar  
    48    25    52 1   
    49    27    28 ar  
    50    27    32 ar  
    51    28    29 ar  
    52    28    33 1   
    53    29    30 ar  
    54    29    53 1   
    55    30    31 ar  
    56    30    54 1   
    57    31    32 ar  
    58    31    55 1   
@<TRIPOS>SUBSTRUCTURE
     1 1JD         1 TEMP              0 ****  ****    0 ROOT
