@<TRIPOS>MOLECULE
molecule
   55    58     1     0     0
SMALL
bcc


@<TRIPOS>ATOM
      1 C1           0.0000     0.0000     0.0000 c3         1 1JD      -0.039800
      2 C2           1.5070     0.0000     0.0000 ca         1 1JD      -0.244600
      3 C3           2.2080     0.0000     1.1990 ca         1 1JD      -0.066000
      4 C4           3.5910    -0.0010     1.1530 ca         1 1JD      -0.295300
      5 C5           4.2280     0.0000    -0.0820 ca         1 1JD       0.554200
      6 N1           3.5240     0.0010    -1.2030 nb         1 1JD      -0.677000
      7 C6           2.2050    -0.0050    -1.1920 ca         1 1JD       0.455200
      8 N2           5.6210     0.0000    -0.1420 ns         1 1JD      -0.552400
      9 C7           6.2450    -0.1040    -1.3320 c          1 1JD       0.653100
     10 O1           5.5970    -0.1030    -2.3580 o          1 1JD      -0.495100
     11 C8           7.7460    -0.2190    -1.3890 c3         1 1JD       0.077100
     12 C9           8.3770     1.0180    -0.7470 c3         1 1JD       0.120400
     13 O2           7.8720     2.1950    -1.3820 os         1 1JD      -0.410600
     14 C10          8.4000     3.4130    -0.8540 c3         1 1JD       0.139100
     15 C11          9.6680     3.7940    -1.6230 c3         1 1JD      -0.104600
     16 C12          7.3610     4.5250    -1.0000 c3         1 1JD      -0.104600
     17 O3           8.1650    -0.3150    -2.7520 os         1 1JD      -0.379100
     18 C13          9.2970    -1.0170    -2.9980 ca         1 1JD       0.753600
     19 C14          9.7840    -1.1580    -4.3070 ca         1 1JD      -0.505500
     20 C15          9.3560    -0.7020    -5.6220 cc         1 1JD       0.434800
     21 N3          10.2170    -1.1440    -6.4940 nd         1 1JD      -0.480100
     22 N4          11.2170    -1.8810    -5.8500 na         1 1JD      -0.053600
     23 C16         10.9670    -1.8990    -4.5080 ca         1 1JD       0.550800
     24 N5          11.5720    -2.4360    -3.4500 nb         1 1JD      -0.749000
     25 C17         11.0750    -2.2770    -2.2420 ca         1 1JD       0.751900
     26 N6           9.9740    -1.5850    -2.0080 nb         1 1JD      -0.868000
     27 C18         12.2990    -2.5000    -6.4790 ca         1 1JD       0.565800
     28 C19         12.4420    -2.4000    -7.8600 ca         1 1JD      -0.103900
     29 C20         13.5200    -3.0190    -8.4710 ca         1 1JD      -0.072000
     30 C21         14.4200    -3.7170    -7.6770 ca         1 1JD      -0.269300
     31 C22         14.2140    -3.7750    -6.3130 ca         1 1JD       0.449200
     32 N7          13.1810    -3.1720    -5.7570 nb         1 1JD      -0.682000
     33 Cl1         11.2850    -1.5140    -8.8030 cl         1 1JD      -0.057400
     34 H1          -0.3610     0.9830    -0.2760 hc         1 1JD       0.043033
     35 H2          -0.3610    -0.2520     0.9900 hc         1 1JD       0.043033
     36 H3          -0.3610    -0.7310    -0.7130 hc         1 1JD       0.043033
     37 H4           1.6850    -0.0010     2.1470 ha         1 1JD       0.139000
     38 H5           4.1700    -0.0010     2.0690 ha         1 1JD       0.132000
     39 H6           1.6620    -0.0040    -2.1290 h4         1 1JD       0.030100
     40 H7           6.1570     0.0610     0.7000 hn         1 1JD       0.325500
     41 H8           8.0610    -1.1050    -0.8510 h1         1 1JD       0.097700
     42 H9           9.4530     0.9770    -0.8660 h1         1 1JD       0.037200
     43 H10          8.1310     1.0430     0.3080 h1         1 1JD       0.037200
     44 H11          8.6400     3.2780     0.1940 h1         1 1JD       0.027700
     45 H12          9.5290     3.5820    -2.6760 hc         1 1JD       0.044700
     46 H13          9.8660     4.8510    -1.4910 hc         1 1JD       0.044700
     47 H14         10.5060     3.2200    -1.2470 hc         1 1JD       0.044700
     48 H15          6.5060     4.3070    -0.3710 hc         1 1JD       0.044700
     49 H16          7.7980     5.4700    -0.7000 hc         1 1JD       0.044700
     50 H17          7.0420     4.5880    -2.0340 hc         1 1JD       0.044700
     51 H18          8.4790    -0.1030    -5.8360 h4         1 1JD       0.084800
     52 H19         11.5960    -2.7230    -1.4030 h5         1 1JD       0.064100
     53 H20         13.6580    -2.9590    -9.5440 ha         1 1JD       0.155000
     54 H21         15.2730    -4.2140    -8.1240 ha         1 1JD       0.147000
     55 H22         14.9150    -4.3170    -5.6900 h4         1 1JD       0.034100
@<TRIPOS>BOND
     1     1     2 1   
     2     3     2 ar  
     3     3     4 ar  
     4     2     7 ar  
     5     4     5 ar  
     6     7     6 ar  
     7    10     9 2   
     8     5     6 ar  
     9     5     8 1   
    10    15    14 1   
    11     9     8 1   
    12     9    11 1   
    13    12    11 1   
    14    12    13 1   
    15    14    13 1   
    16    14    16 1   
    17    33    28 1   
    18    11    17 1   
    19    20    21 2   
    20    20    19 1   
    21    17    18 1   
    22    21    22 1   
    23    19    18 ar  
    24    19    23 ar  
    25    18    26 ar  
    26    22    23 1   
    27    22    27 1   
    28    28    29 ar  
    29    28    27 ar  
    30    23    24 ar  
    31    26    25 ar  
    32    29    30 ar  
    33    27    32 ar  
    34    25    24 ar  
    35    32    31 ar  
    36    30    31 ar  
    37     1    34 1   
    38     1    35 1   
    39     1    36 1   
    40     3    37 1   
    41     4    38 1   
    42     7    39 1   
    43     8    40 1   
    44    11    41 1   
    45    12    42 1   
    46    12    43 1   
    47    14    44 1   
    48    15    45 1   
    49    15    46 1   
    50    15    47 1   
    51    16    48 1   
    52    16    49 1   
    53    16    50 1   
    54    20    51 1   
    55    25    52 1   
    56    29    53 1   
    57    30    54 1   
    58    31    55 1   
@<TRIPOS>SUBSTRUCTURE
     1 1JD         1 TEMP              0 ****  ****    0 ROOT
