@<TRIPOS>MOLECULE
1JD
   55    58     1     0     0
SMALL
bcc


@<TRIPOS>ATOM
      1 C1           0.7730    -0.4010    -1.1670 c3         1 1JD      -0.043800
      2 C2           2.2270    -0.3170    -0.9260 ca         1 1JD      -0.221600
      3 C3           2.7500     0.1770     0.2730 ca         1 1JD      -0.076000
      4 C4           4.1280     0.2550     0.4540 ca         1 1JD      -0.252300
      5 C5           4.9840    -0.1800    -0.5960 ca         1 1JD       0.522200
      6 N1           4.4800    -0.6720    -1.7770 nb         1 1JD      -0.715000
      7 C6           3.1500    -0.7250    -1.9120 ca         1 1JD       0.422200
      8 N2           6.3900    -0.1030    -0.4970 ns         1 1JD      -0.543400
      9 C7           7.1130     0.0090     0.6790 c          1 1JD       0.654100
     10 O1           6.6090     0.1170     1.8090 o          1 1JD      -0.574100
     11 C8           8.6390     0.0130     0.4990 c3         1 1JD       0.074100
     12 C9           9.1380    -1.3020    -0.1190 c3         1 1JD       0.126400
     13 O2           8.9540    -1.1530    -1.5220 os         1 1JD      -0.440600
     14 C10          9.1350    -2.3750    -2.2550 c3         1 1JD       0.144100
     15 C11         10.6050    -2.7350    -2.3420 c3         1 1JD      -0.112600
     16 C12          8.5390    -2.1110    -3.6270 c3         1 1JD      -0.112600
     17 O3           9.2760     0.0620     1.7840 os         1 1JD      -0.419100
     18 C13          9.2130     1.2440     2.4860 ca         1 1JD       0.740600
     19 C14          9.7470     1.2180     3.7930 ca         1 1JD      -0.457500
     20 C15         10.3570     0.2810     4.7170 cc         1 1JD       0.417800
     21 N3          10.6450     0.8890     5.8770 nd         1 1JD      -0.498100
     22 N4          10.2020     2.1770     5.8220 na         1 1JD      -0.045600
     23 C16          9.6920     2.4750     4.5300 ca         1 1JD       0.492800
     24 N5           9.1620     3.6270     4.0260 nb         1 1JD      -0.689000
     25 C17          8.7020     3.4870     2.7600 ca         1 1JD       0.692900
     26 N6           8.6950     2.3810     1.9560 nb         1 1JD      -0.782000
     27 C18         10.6780     3.1810     6.7270 ca         1 1JD       0.517800
     28 C19         10.4050     3.0530     8.1190 ca         1 1JD      -0.075900
     29 C20         10.8480     4.0690     8.9790 ca         1 1JD      -0.088000
     30 C21         11.5300     5.1590     8.4500 ca         1 1JD      -0.236300
     31 C22         11.7590     5.1980     7.0610 ca         1 1JD       0.410200
     32 N7          11.3610     4.2430     6.2100 nb         1 1JD      -0.647000
     33 Cl1          9.5650     1.7320     8.7490 cl         1 1JD      -0.040400
     34 H1           0.4040     0.5530    -1.6240 hc         1 1JD       0.044700
     35 H2           0.2190    -0.5670    -0.2100 hc         1 1JD       0.044700
     36 H3           0.5310    -1.2390    -1.8670 hc         1 1JD       0.044700
     37 H4           2.0750     0.5070     1.0770 ha         1 1JD       0.141000
     38 H5           4.5410     0.6420     1.3980 ha         1 1JD       0.180000
     39 H6           2.7950    -1.1270    -2.8800 h4         1 1JD       0.020100
     40 H7           6.9100    -0.2960    -1.3320 hn         1 1JD       0.349500
     41 H8           8.9520     0.8860    -0.1380 h1         1 1JD       0.112700
     42 H9           8.5550    -2.1760     0.2720 h1         1 1JD       0.056200
     43 H10         10.2270    -1.4430     0.1100 h1         1 1JD       0.056200
     44 H11          8.5660    -3.2000    -1.7400 h1         1 1JD       0.042700
     45 H12         10.7380    -3.6040    -3.0290 hc         1 1JD       0.048367
     46 H13         11.1920    -1.8710    -2.7350 hc         1 1JD       0.048367
     47 H14         11.0030    -3.0070    -1.3360 hc         1 1JD       0.048367
     48 H15          7.4760    -1.7840    -3.5270 hc         1 1JD       0.048367
     49 H16          8.5810    -3.0470    -4.2320 hc         1 1JD       0.048367
     50 H17          9.1100    -1.3090    -4.1510 hc         1 1JD       0.048367
     51 H18         10.5630    -0.7770     4.5390 h4         1 1JD       0.066800
     52 H19          8.2660     4.4020     2.3030 h5         1 1JD       0.060100
     53 H20         10.6520     3.9980    10.0600 ha         1 1JD       0.157000
     54 H21         11.8850     5.9740     9.0950 ha         1 1JD       0.153000
     55 H22         12.3010     6.0440     6.5970 h4         1 1JD       0.033100
@<TRIPOS>BOND
     1     1     2 1   
     2     1    34 1   
     3     1    35 1   
     4     1    36 1   
     5     2     3 ar  
     6     2     7 ar  
     7     3     4 ar  
     8     3    37 1   
     9     4     5 ar  
    10     4    38 1   
    11     5     6 ar  
    12     5     8 1   
    13     6     7 ar  
    14     7    39 1   
    15     8     9 1   
    16     8    40 1   
    17     9    10 2   
    18     9    11 1   
    19    11    12 1   
    20    11    17 1   
    21    11    41 1   
    22    12    13 1   
    23    12    42 1   
    24    12    43 1   
    25    13    14 1   
    26    14    15 1   
    27    14    16 1   
    28    14    44 1   
    29    15    45 1   
    30    15    46 1   
    31    15    47 1   
    32    16    48 1   
    33    16    49 1   
    34    16    50 1   
    35    17    18 1   
    36    18    19 ar  
    37    18    26 ar  
    38    19    20 1   
    39    19    23 ar  
    40    20    21 2   
    41    20    51 1   
    42    21    22 1   
    43    22    23 1   
    44    22    27 1   
    45    23    24 ar  
    46    24    25 ar  
    47    25    26 ar  
    48    25    52 1   
    49    27    28 ar  
    50    27    32 ar  
    51    28    29 ar  
    52    28    33 1   
    53    29    30 ar  
    54    29    53 1   
    55    30    31 ar  
    56    30    54 1   
    57    31    32 ar  
    58    31    55 1   
@<TRIPOS>SUBSTRUCTURE
     1 1JD         1 TEMP              0 ****  ****    0 ROOT
