@<TRIPOS>MOLECULE
1JE
   38    40     1     0     0
SMALL
bcc


@<TRIPOS>ATOM
      1 C1         -0.0880   -0.2310    0.2530 ca        1 1JE     -0.052200
      2 C2          1.3120   -0.3710    0.2370 ca        1 1JE      0.017400
      3 C3          2.0200   -0.1760    1.4140 ca        1 1JE     -0.135000
      4 C4          1.3620    0.1590    2.6090 ca        1 1JE     -0.160000
      5 C5         -0.0190    0.3030    2.6480 ca        1 1JE      0.055400
      6 C6         -0.7810    0.1150    1.4900 ca        1 1JE     -0.064800
      7 N7         -1.0250   -0.3540   -0.7650 na        1 1JE     -0.125400
      8 C8         -2.2790   -0.1180   -0.2210 cc        1 1JE     -0.038300
      9 C9         -2.1740    0.1770    1.1530 cd        1 1JE     -0.176400
     10 C10        -3.5780   -0.1560   -0.9760 c3        1 1JE      0.232000
     11 O11        -4.6560   -0.2350   -0.0150 os        1 1JE     -0.416600
     12 C12        -4.5730    0.6750    1.0710 c3        1 1JE      0.131400
     13 C13        -3.3630    0.4370    1.9720 c3        1 1JE     -0.025200
     14 CL1         2.1150   -0.7740   -1.2040 cl        1 1JE     -0.094400
     15 CL2        -0.7720    0.7130    4.1240 cl        1 1JE     -0.126400
     16 C16        -3.7100   -1.4310   -1.8130 c3        1 1JE     -0.195400
     17 C17        -3.0670   -1.3330   -3.2070 c         1 1JE      0.913600
     18 O18        -3.8280   -1.4090   -4.2090 o         1 1JE     -0.839800
     19 O19        -1.8060   -1.2110   -3.3050 o         1 1JE     -0.839800
     20 C20        -3.7030    1.1130   -1.8290 c3        1 1JE     -0.091400
     21 C21        -5.0430    1.1990   -2.5270 c3        1 1JE     -0.093400
     22 C22        -5.2130    2.5230   -3.2250 c3        1 1JE     -0.082100
     23 H1          3.1140   -0.2840    1.4220 ha        1 1JE      0.133000
     24 H2          1.9600    0.3050    3.5200 ha        1 1JE      0.131000
     25 H3         -0.8770   -0.6670   -1.7170 hn        1 1JE      0.379700
     26 H4         -5.5250    0.4930    1.6390 h1        1 1JE      0.036200
     27 H5         -4.5650    1.7300    0.6870 h1        1 1JE      0.036200
     28 H6         -3.2100    1.3320    2.6310 hc        1 1JE      0.044200
     29 H7         -3.5570   -0.4440    2.6420 hc        1 1JE      0.044200
     30 H8         -3.2450   -2.2850   -1.2610 hc        1 1JE      0.052200
     31 H9         -4.8020   -1.6500   -1.9410 hc        1 1JE      0.052200
     32 H11        -2.8810    1.0880   -2.5960 hc        1 1JE      0.052200
     33 H12        -3.5490    2.0150   -1.1820 hc        1 1JE      0.052200
     34 H13        -5.1100    0.3580   -3.2760 hc        1 1JE      0.066200
     35 H14        -5.8640    1.0530   -1.7760 hc        1 1JE      0.066200
     36 H15        -6.1990    2.5610   -3.7470 hc        1 1JE      0.020367
     37 H16        -4.4070    2.6710   -3.9840 hc        1 1JE      0.020367
     38 H17        -5.1680    3.3690   -2.4960 hc        1 1JE      0.020367
@<TRIPOS>BOND
     1    1    2 ar  
     2    1    6 ar  
     3    1    7 1   
     4    2    3 ar  
     5    2   14 1   
     6    3    4 ar  
     7    3   23 1   
     8    4    5 ar  
     9    4   24 1   
    10    5    6 ar  
    11    5   15 1   
    12    6    9 1   
    13    7    8 1   
    14    7   25 1   
    15    8    9 2   
    16    8   10 1   
    17    9   13 1   
    18   10   11 1   
    19   10   16 1   
    20   10   20 1   
    21   11   12 1   
    22   12   13 1   
    23   12   26 1   
    24   12   27 1   
    25   13   28 1   
    26   13   29 1   
    27   16   17 1   
    28   16   30 1   
    29   16   31 1   
    30   17   18 1   
    31   17   19 1   
    32   20   21 1   
    33   20   32 1   
    34   20   33 1   
    35   21   22 1   
    36   21   34 1   
    37   21   35 1   
    38   22   36 1   
    39   22   37 1   
    40   22   38 1   
@<TRIPOS>SUBSTRUCTURE
     1 1JE         1 TEMP              0 ****  ****    0 ROOT
