@<TRIPOS>MOLECULE
1JE
   38    40     1     0     0
SMALL
bcc


@<TRIPOS>ATOM
      1 C1          -0.0130     0.0730     0.0150 ca         1 1JE      -0.051200
      2 C2           1.3920     0.1080     0.0490 ca         1 1JE       0.018400
      3 C3           2.0350     0.1250     1.2790 ca         1 1JE      -0.135000
      4 C4           1.3050     0.1130     2.4780 ca         1 1JE      -0.159000
      5 C5          -0.0850     0.0810     2.4690 ca         1 1JE       0.054400
      6 C6          -0.7810     0.0570     1.2570 ca         1 1JE      -0.060800
      7 N7          -0.8970     0.0830    -1.0590 na         1 1JE      -0.124400
      8 C8          -2.1870     0.0320    -0.5470 cc         1 1JE      -0.028300
      9 C9          -2.1600     0.0170     0.8610 cd         1 1JE      -0.179400
     10 C10         -3.4400    -0.0290    -1.3720 c3         1 1JE       0.231000
     11 O11         -4.5890     0.1090    -0.4990 os         1 1JE      -0.426600
     12 C12         -4.5100    -0.6010     0.7270 c3         1 1JE       0.133400
     13 C13         -3.4020    -0.0740     1.6370 c3         1 1JE      -0.026200
     14 Cl1          2.2830     0.1280    -1.3970 cl         1 1JE      -0.097400
     15 Cl2         -0.9250     0.0740     3.9540 cl         1 1JE      -0.125400
     16 C16         -3.5310    -1.3630    -2.1150 c3         1 1JE      -0.220400
     17 C17         -2.7630    -1.4400    -3.4460 c          1 1JE       0.917600
     18 O18         -1.6100    -0.9160    -3.5530 o          1 1JE      -0.843300
     19 O19         -3.3200    -2.0620    -4.3910 o          1 1JE      -0.843300
     20 C20         -3.5480     1.1470    -2.3510 c3         1 1JE      -0.076400
     21 C21         -3.5210     2.4960    -1.6690 c3         1 1JE      -0.080400
     22 C22         -3.6380     3.6160    -2.6700 c3         1 1JE      -0.087100
     23 H1           3.1340     0.1470     1.3250 ha         1 1JE       0.133000
     24 H2           1.8510     0.1300     3.4320 ha         1 1JE       0.131000
     25 H3          -0.6860    -0.1090    -2.0290 hn         1 1JE       0.374700
     26 H4          -4.3570    -1.6940     0.5240 h1         1 1JE       0.039700
     27 H5          -5.5180    -0.4390     1.1940 h1         1 1JE       0.039700
     28 H6          -3.6850     0.9370     2.0340 hc         1 1JE       0.045200
     29 H7          -3.2800    -0.7620     2.5140 hc         1 1JE       0.045200
     30 H8          -3.1490    -2.1850    -1.4580 hc         1 1JE       0.048700
     31 H9          -4.6120    -1.5650    -2.3280 hc         1 1JE       0.048700
     32 H11         -4.5090     1.0300    -2.9180 hc         1 1JE       0.075700
     33 H12         -2.7020     1.0570    -3.0850 hc         1 1JE       0.075700
     34 H13         -4.3620     2.5560    -0.9290 hc         1 1JE       0.041700
     35 H14         -2.5650     2.6050    -1.0910 hc         1 1JE       0.041700
     36 H15         -2.8000     3.5730    -3.4070 hc         1 1JE       0.024033
     37 H16         -3.6060     4.6050    -2.1540 hc         1 1JE       0.024033
     38 H17         -4.6000     3.5420    -3.2330 hc         1 1JE       0.024033
@<TRIPOS>BOND
     1     1     2 ar  
     2     1     6 ar  
     3     1     7 1   
     4     2     3 ar  
     5     2    14 1   
     6     3     4 ar  
     7     3    23 1   
     8     4     5 ar  
     9     4    24 1   
    10     5     6 ar  
    11     5    15 1   
    12     6     9 1   
    13     7     8 1   
    14     7    25 1   
    15     8     9 2   
    16     8    10 1   
    17     9    13 1   
    18    10    11 1   
    19    10    16 1   
    20    10    20 1   
    21    11    12 1   
    22    12    13 1   
    23    12    26 1   
    24    12    27 1   
    25    13    28 1   
    26    13    29 1   
    27    16    17 1   
    28    16    30 1   
    29    16    31 1   
    30    17    18 1   
    31    17    19 1   
    32    20    21 1   
    33    20    32 1   
    34    20    33 1   
    35    21    22 1   
    36    21    34 1   
    37    21    35 1   
    38    22    36 1   
    39    22    37 1   
    40    22    38 1   
@<TRIPOS>SUBSTRUCTURE
     1 1JE         1 TEMP              0 ****  ****    0 ROOT
