@<TRIPOS>MOLECULE
molecule
   38    40     1     0     0
SMALL
bcc


@<TRIPOS>ATOM
      1 C1           0.0000     0.0000     0.0000 ca         1 1JE      -0.029200
      2 C2           1.3920     0.0000     0.0000 ca         1 1JE       0.024400
      3 C3           2.0790     0.0000     1.1950 ca         1 1JE      -0.121000
      4 C4           1.3950    -0.0010     2.4030 ca         1 1JE      -0.160000
      5 C5           0.0290    -0.0010     2.4270 ca         1 1JE       0.081400
      6 C6          -0.6890    -0.0010     1.2280 ca         1 1JE      -0.067800
      7 N7          -0.9460     0.0040    -1.0030 na         1 1JE      -0.143400
      8 C8          -2.1970     0.0090    -0.4600 cc         1 1JE      -0.006300
      9 C9          -2.1060     0.0020     0.8860 cd         1 1JE      -0.132400
     10 C10         -3.5230     0.0140    -1.1850 c3         1 1JE       0.235000
     11 O11         -4.5460    -0.3440    -0.2480 os         1 1JE      -0.359600
     12 C12         -4.5290     0.4140     0.9650 c3         1 1JE       0.131400
     13 C13         -3.3030     0.0060     1.8000 c3         1 1JE      -0.025200
     14 Cl1          2.2610    -0.0010    -1.5020 cl         1 1JE      -0.135400
     15 Cl2         -0.8140    -0.0030     3.9450 cl         1 1JE      -0.129400
     16 C16         -3.4910    -1.0020    -2.3290 c3         1 1JE      -0.179400
     17 C17         -3.2380    -2.3780    -1.7700 c          1 1JE       0.885600
     18 O18         -3.2060    -2.5490    -0.5740 o          1 1JE      -0.835300
     19 O19         -3.0480    -3.4160    -2.6000 o          1 1JE      -0.835300
     20 C20         -3.8010     1.4120    -1.7440 c3         1 1JE      -0.109400
     21 C21         -5.1490     1.4140    -2.4680 c3         1 1JE      -0.080400
     22 C22         -5.4870     2.8370    -2.9130 c3         1 1JE      -0.094100
     23 H1           3.1620     0.0000     1.1920 ha         1 1JE       0.134000
     24 H2           1.9480    -0.0010     3.3340 ha         1 1JE       0.132000
     25 H3          -0.7440     0.0040    -1.9830 hn         1 1JE       0.307700
     26 H4          -5.4320     0.2140     1.5280 h1         1 1JE       0.030700
     27 H5          -4.4690     1.4700     0.7290 h1         1 1JE       0.030700
     28 H6          -3.1510     0.7210     2.6000 hc         1 1JE       0.055200
     29 H7          -3.4540    -0.9850     2.2110 hc         1 1JE       0.055200
     30 H8          -4.4410    -0.9920    -2.8470 hc         1 1JE       0.042200
     31 H9          -2.6990    -0.7420    -3.0210 hc         1 1JE       0.042200
     32 H11         -3.0170     1.6850    -2.4400 hc         1 1JE       0.036700
     33 H12         -3.8270     2.1270    -0.9310 hc         1 1JE       0.036700
     34 H13         -5.0940     0.7680    -3.3360 hc         1 1JE       0.055200
     35 H14         -5.9200     1.0520    -1.7980 hc         1 1JE       0.055200
     36 H15         -5.5800     3.4750    -2.0420 hc         1 1JE       0.024033
     37 H16         -6.4220     2.8330    -3.4590 hc         1 1JE       0.024033
     38 H17         -4.6970     3.2130    -3.5520 hc         1 1JE       0.024033
@<TRIPOS>BOND
     1    22    21 1
     2    21    20 1
     3    20    10 1
     4    14     2 1
     5     2     3 ar
     6     2     1 ar
     7     7     1 1
     8     7     8 1
     9     3     4 ar
    10     1     6 ar
    11    18    17 1
    12    10     8 1
    13    10    11 1
    14    10    16 1
    15     8     9 2
    16     4     5 ar
    17     6     9 1
    18     6     5 ar
    19    11    12 1
    20     9    13 1
    21     5    15 1
    22    17    16 1
    23    17    19 1
    24    13    12 1
    25     3    23 1
    26     4    24 1
    27     7    25 1
    28    12    26 1
    29    12    27 1
    30    13    28 1
    31    13    29 1
    32    16    30 1
    33    16    31 1
    34    20    32 1
    35    20    33 1
    36    21    34 1
    37    21    35 1
    38    22    36 1
    39    22    37 1
    40    22    38 1
@<TRIPOS>SUBSTRUCTURE
     1 1JE         1 TEMP              0 ****  ****    0 ROOT
