@<TRIPOS>MOLECULE
molecule
   29    30     1     0     0
SMALL
bcc


@<TRIPOS>ATOM
      1 C1           0.0000     0.0000     0.0000 ca         1 1JF      -0.294500
      2 C2           1.3830     0.0000     0.0000 ca         1 1JF       0.122400
      3 C3           2.0760     0.0000     1.1970 ca         1 1JF      -0.136000
      4 C4           1.3850     0.0000     2.3950 ca         1 1JF       0.077400
      5 C5           0.0000     0.0010     2.3950 ca         1 1JF       0.004400
      6 C6          -0.6910     0.0000     1.1970 ca         1 1JF      -0.005000
      7 S7          -0.8810     0.0060    -1.5250 sy         1 1JF       1.413200
      8 O8          -0.3310    -1.0410    -2.3120 o          1 1JF      -0.624800
      9 O9          -2.2600     0.0850    -1.1920 o          1 1JF      -0.624800
     10 N10         -0.5080     1.4210    -2.3010 nu         1 1JF      -0.723500
     11 C11         -0.9370     2.6340    -1.7810 ca         1 1JF       0.190600
     12 C12         -1.3230     3.6750    -2.6400 ca         1 1JF      -0.120600
     13 C13         -1.7540     4.8910    -2.1030 ca         1 1JF      -0.060000
     14 C14         -1.7990     5.0610    -0.7370 ca         1 1JF      -0.172000
     15 C15         -1.4170     4.0310     0.1110 ca         1 1JF       0.050400
     16 C16         -0.9940     2.8210    -0.4050 ca         1 1JF      -0.216000
     17 Cl1          2.2510     0.0010    -1.5050 cl         1 1JF      -0.058400
     18 Cl2          2.2540     0.0000     3.8980 cl         1 1JF      -0.088400
     19 Cl3         -0.8670     0.0000     3.8990 cl         1 1JF      -0.086400
     20 C20         -1.2720     3.4870    -4.1000 c          1 1JF       0.890200
     21 O21         -1.6430     4.4890    -4.9210 o          1 1JF      -0.828800
     22 O22         -0.8960     2.4280    -4.5640 o          1 1JF      -0.828800
     23 Cl4         -1.4780     4.2610     1.8310 cl         1 1JF      -0.153400
     24 H1           3.1590    -0.0000     1.1960 ha         1 1JF       0.160000
     25 H2          -1.7740     0.0000     1.1960 ha         1 1JF       0.185000
     26 H3           0.0540     1.4030    -3.1300 hn         1 1JF       0.511800
     27 H4          -2.0530     5.6990    -2.7600 ha         1 1JF       0.167000
     28 H5          -2.1310     6.0050    -0.3230 ha         1 1JF       0.125000
     29 H6          -0.6980     2.0220     0.2640 ha         1 1JF       0.126000
@<TRIPOS>BOND
     1    14    13 ar
     2    14    15 ar
     3    23    15 1
     4    13    12 ar
     5    15    16 ar
     6    12    20 1
     7    12    11 ar
     8    16    11 ar
     9    20    22 1
    10    20    21 1
    11    11    10 1
    12    10     7 1
    13     8     7 2
    14     7     1 1
    15     7     9 2
    16     1     6 ar
    17     1     2 ar
    18     6     5 ar
    19    17     2 1
    20     2     3 ar
    21     5    19 1
    22     5     4 ar
    23     3     4 ar
    24     4    18 1
    25     3    24 1
    26     6    25 1
    27    10    26 1
    28    13    27 1
    29    14    28 1
    30    16    29 1
@<TRIPOS>SUBSTRUCTURE
     1 1JF         1 TEMP              0 ****  ****    0 ROOT
