@<TRIPOS>MOLECULE
1JF
   29    30     1     0     0
SMALL
bcc


@<TRIPOS>ATOM
      1 C1           0.0210    -0.0280     0.0720 ca         1 1JF      -0.323500
      2 C2           1.4110    -0.1930    -0.0000 ca         1 1JF       0.126400
      3 C3           2.1760    -0.3960     1.1550 ca         1 1JF      -0.149000
      4 C4           1.5540    -0.4370     2.4030 ca         1 1JF       0.071400
      5 C5           0.1630    -0.2680     2.4940 ca         1 1JF      -0.019600
      6 C6          -0.5830    -0.0620     1.3330 ca         1 1JF      -0.012000
      7 S7          -1.0160     0.1740    -1.3000 sy         1 1JF       1.493200
      8 O8          -2.3210     0.3580    -0.7740 o          1 1JF      -0.659800
      9 O9          -0.8840    -0.9740    -2.1130 o          1 1JF      -0.659800
     10 N10         -0.4530     1.4600    -2.0510 nu         1 1JF      -0.790500
     11 C11         -0.5120     2.8110    -1.6610 ca         1 1JF       0.186600
     12 C12          0.5110     3.7140    -2.0470 ca         1 1JF      -0.148600
     13 C13          0.4170     5.0510    -1.6530 ca         1 1JF      -0.081000
     14 C14         -0.6520     5.5210    -0.8960 ca         1 1JF      -0.167000
     15 C15         -1.6570     4.6270    -0.5290 ca         1 1JF       0.031400
     16 C16         -1.6070     3.2850    -0.9010 ca         1 1JF      -0.200000
     17 Cl1          2.2120    -0.1360    -1.4850 cl         1 1JF      -0.006400
     18 Cl2          2.5010    -0.6900     3.7890 cl         1 1JF      -0.078400
     19 Cl3         -0.6290    -0.3080     3.9960 cl         1 1JF      -0.080400
     20 C20          1.7260     3.3240    -2.8820 c          1 1JF       0.912200
     21 O21          2.7430     4.0630    -2.8030 o          1 1JF      -0.819300
     22 O22          1.6660     2.2970    -3.6240 o          1 1JF      -0.819300
     23 Cl4         -2.9840     5.1840     0.3950 cl         1 1JF      -0.141400
     24 H1           3.2690    -0.5150     1.0780 ha         1 1JF       0.165000
     25 H2          -1.6800     0.0800     1.4080 ha         1 1JF       0.184000
     26 H3           0.1810     1.3480    -2.8460 hn         1 1JF       0.527800
     27 H4           1.2360     5.7290    -1.9500 ha         1 1JF       0.164000
     28 H5          -0.7020     6.5770    -0.5950 ha         1 1JF       0.130000
     29 H6          -2.4280     2.6090    -0.6060 ha         1 1JF       0.165000
@<TRIPOS>BOND
     1     1     2 ar  
     2     1     6 ar  
     3     1     7 1   
     4     2     3 ar  
     5     2    17 1   
     6     3     4 ar  
     7     3    24 1   
     8     4     5 ar  
     9     4    18 1   
    10     5     6 ar  
    11     5    19 1   
    12     6    25 1   
    13     7     8 2   
    14     7     9 2   
    15     7    10 1   
    16    10    11 1   
    17    10    26 1   
    18    11    12 ar  
    19    11    16 ar  
    20    12    13 ar  
    21    12    20 1   
    22    13    14 ar  
    23    13    27 1   
    24    14    15 ar  
    25    14    28 1   
    26    15    16 ar  
    27    15    23 1   
    28    16    29 1   
    29    20    21 1   
    30    20    22 1   
@<TRIPOS>SUBSTRUCTURE
     1 1JF         1 TEMP              0 ****  ****    0 ROOT
