@<TRIPOS>MOLECULE
1JF
   29    30     1     0     0
SMALL
bcc


@<TRIPOS>ATOM
      1 C1           0.0000     0.0000     0.0000 ca         1 1JF      -0.146500
      2 C2           1.3830     0.0000     0.0000 ca         1 1JF       0.054400
      3 C3           2.0760     0.0000     1.1970 ca         1 1JF      -0.126000
      4 C4           1.3850     0.0000     2.3950 ca         1 1JF       0.009400
      5 C5           0.0000     0.0010     2.3950 ca         1 1JF      -0.075600
      6 C6          -0.6910     0.0000     1.1970 ca         1 1JF       0.027000
      7 S7          -0.8810     0.0060    -1.5250 sy         1 1JF       1.016200
      8 O8          -0.3310    -1.0410    -2.3120 o          1 1JF      -0.583800
      9 O9          -2.2600     0.0850    -1.1920 o          1 1JF      -0.583800
     10 N10         -0.5080     1.4210    -2.3010 nu         1 1JF      -0.359500
     11 C11         -0.9370     2.6340    -1.7810 ca         1 1JF       0.123600
     12 C12         -1.3230     3.6750    -2.6400 ca         1 1JF      -0.136600
     13 C13         -1.7540     4.8910    -2.1030 ca         1 1JF      -0.023000
     14 C14         -1.7990     5.0610    -0.7370 ca         1 1JF      -0.166000
     15 C15         -1.4170     4.0310     0.1110 ca         1 1JF       0.007400
     16 C16         -0.9940     2.8210    -0.4050 ca         1 1JF      -0.228000
     17 Cl1          2.2510     0.0010    -1.5050 cl         1 1JF       0.031600
     18 Cl2          2.2540     0.0000     3.8980 cl         1 1JF      -0.013400
     19 Cl3         -0.8670     0.0000     3.8990 cl         1 1JF      -0.005400
     20 C20         -1.2720     3.4870    -4.1000 c          1 1JF       0.986200
     21 O21         -1.6430     4.4890    -4.9210 o          1 1JF      -0.876800
     22 O22         -0.8960     2.4280    -4.5640 o          1 1JF      -0.876800
     23 Cl4         -1.4780     4.2610     1.8310 cl         1 1JF      -0.091400
     24 H1           3.1590    -0.0000     1.1960 ha         1 1JF       0.126000
     25 H2          -1.7740     0.0000     1.1960 ha         1 1JF       0.150000
     26 H3           0.0540     1.4030    -3.1300 hn         1 1JF       0.406800
     27 H4          -2.0530     5.6990    -2.7600 ha         1 1JF       0.132000
     28 H5          -2.1310     6.0050    -0.3230 ha         1 1JF       0.100000
     29 H6          -0.6980     2.0220     0.2640 ha         1 1JF       0.121000
@<TRIPOS>BOND
     1     1     2 ar  
     2     1     6 ar  
     3     1     7 1   
     4     2     3 ar  
     5     2    17 1   
     6     3     4 ar  
     7     3    24 1   
     8     4     5 ar  
     9     4    18 1   
    10     5     6 ar  
    11     5    19 1   
    12     6    25 1   
    13     7     8 2   
    14     7     9 2   
    15     7    10 1   
    16    10    11 1   
    17    10    26 1   
    18    11    12 ar  
    19    11    16 ar  
    20    12    13 ar  
    21    12    20 1   
    22    13    14 ar  
    23    13    27 1   
    24    14    15 ar  
    25    14    28 1   
    26    15    16 ar  
    27    15    23 1   
    28    16    29 1   
    29    20    21 1   
    30    20    22 1   
@<TRIPOS>SUBSTRUCTURE
     1 1JF         1 TEMP              0 ****  ****    0 ROOT
