@<TRIPOS>MOLECULE
1JG
   26    27     1     0     0
SMALL
bcc


@<TRIPOS>ATOM
      1 Br1          0.3810    -1.5580    -0.8460 br         1 1JG      -0.047100
      2 S2           2.8730    -1.2760     0.9260 ss         1 1JG       0.247200
      3 C3           1.9960    -0.8110    -0.3960 cc         1 1JG      -0.107000
      4 C4           2.6430     0.2040    -1.0940 cd         1 1JG      -0.145000
      5 C5           3.8730     0.5450    -0.4770 cd         1 1JG      -0.029000
      6 C6           4.1200    -0.2250     0.6660 cc         1 1JG      -0.450600
      7 S7           5.5340    -0.0690     1.5640 sy         1 1JG       1.526200
      8 O8           6.5640    -0.7910     0.9150 o          1 1JG      -0.668800
      9 O9           5.2520    -0.5360     2.8730 o          1 1JG      -0.668800
     10 N10          5.8860     1.5000     1.5300 nu         1 1JG      -0.761500
     11 C11          5.2190     2.5490     2.1890 ca         1 1JG       0.179600
     12 C12          4.9690     3.7780     1.5280 ca         1 1JG      -0.157600
     13 C13          4.3490     4.8110     2.2370 ca         1 1JG      -0.082000
     14 C14          3.9550     4.6600     3.5630 ca         1 1JG      -0.167000
     15 C15          4.1970     3.4420     4.1990 ca         1 1JG       0.029400
     16 C16          4.8250     2.3900     3.5390 ca         1 1JG      -0.184000
     17 C17          5.3340     4.0570     0.0750 c          1 1JG       0.914200
     18 O18          5.6950     3.0990    -0.6770 o          1 1JG      -0.827800
     19 O19          5.2470     5.2470    -0.3280 o          1 1JG      -0.827800
     20 Cl1          3.7160     3.2350     5.8280 cl         1 1JG      -0.140400
     21 H1           2.2690     0.6950    -1.9960 ha         1 1JG       0.167000
     22 H2           4.5300     1.3520    -0.8570 ha         1 1JG       0.234000
     23 H3           6.4140     1.8570     0.7390 hn         1 1JG       0.504800
     24 H4           4.1790     5.7640     1.7050 ha         1 1JG       0.165000
     25 H5           3.4640     5.4850     4.0960 ha         1 1JG       0.130000
     26 H6           5.0060     1.4380     4.0680 ha         1 1JG       0.168000
@<TRIPOS>BOND
     1     1     3 1   
     2     2     3 1   
     3     2     6 1   
     4     3     4 2   
     5     4     5 1   
     6     4    21 1   
     7     5     6 2   
     8     5    22 1   
     9     6     7 1   
    10     7     8 2   
    11     7     9 2   
    12     7    10 1   
    13    10    11 1   
    14    10    23 1   
    15    11    12 ar  
    16    11    16 ar  
    17    12    13 ar  
    18    12    17 1   
    19    13    14 ar  
    20    13    24 1   
    21    14    15 ar  
    22    14    25 1   
    23    15    16 ar  
    24    15    20 1   
    25    16    26 1   
    26    17    18 1   
    27    17    19 1   
@<TRIPOS>SUBSTRUCTURE
     1 1JG         1 TEMP              0 ****  ****    0 ROOT
