@<TRIPOS>MOLECULE
1JG
   26    27     1     0     0
SMALL
bcc


@<TRIPOS>ATOM
      1 Br1          0.0000     0.0000     0.0000 br         1 1JG      -0.071100
      2 S2           2.9060     0.0000     1.4370 ss         1 1JG      -0.163800
      3 C3           1.8920     0.0000     0.0000 cc         1 1JG       0.140000
      4 C4           2.6610     0.0020    -1.0910 cd         1 1JG      -0.142000
      5 C5           4.0230     0.0010    -0.8440 cd         1 1JG       0.011000
      6 C6           4.3590     0.0000     0.4470 cc         1 1JG      -0.013600
      7 S7           6.0090     0.0000     1.0650 sy         1 1JG       1.041200
      8 O8           5.9460    -0.5450     2.3770 o          1 1JG      -0.596800
      9 O9           6.8240    -0.5420     0.0360 o          1 1JG      -0.596800
     10 N10          6.4680     1.5820     1.2400 nu         1 1JG      -0.351500
     11 C11          5.7600     2.4200     2.0900 ca         1 1JG       0.090600
     12 C12          5.5730     3.7710     1.7560 ca         1 1JG      -0.140600
     13 C13          4.8580     4.6050     2.6220 ca         1 1JG      -0.033000
     14 C14          4.3430     4.0980     3.7940 ca         1 1JG      -0.164000
     15 C15          4.5290     2.7630     4.1220 ca         1 1JG       0.000400
     16 C16          5.2280     1.9250     3.2740 ca         1 1JG      -0.219000
     17 C17          6.1280     4.3070     0.5020 c          1 1JG       0.984200
     18 O18          5.9450     5.6040     0.1840 o          1 1JG      -0.880300
     19 O19          6.7490     3.5800    -0.2480 o          1 1JG      -0.880300
     20 Cl1          3.8740     2.1400     5.6040 cl         1 1JG      -0.088400
     21 H1           2.2500     0.0020    -2.0930 ha         1 1JG       0.127000
     22 H2           4.7590     0.0020    -1.6390 ha         1 1JG       0.139000
     23 H3           7.2910     1.9170     0.7780 hn         1 1JG       0.402800
     24 H4           4.7100     5.6490     2.3700 ha         1 1JG       0.132000
     25 H5           3.7910     4.7460     4.4640 ha         1 1JG       0.099000
     26 H6           5.3700     0.8840     3.5380 ha         1 1JG       0.173000
@<TRIPOS>BOND
     1     1     3 1   
     2     2     3 1   
     3     2     6 1   
     4     3     4 2   
     5     4     5 1   
     6     4    21 1   
     7     5     6 2   
     8     5    22 1   
     9     6     7 1   
    10     7     8 2   
    11     7     9 2   
    12     7    10 1   
    13    10    11 1   
    14    10    23 1   
    15    11    12 ar  
    16    11    16 ar  
    17    12    13 ar  
    18    12    17 1   
    19    13    14 ar  
    20    13    24 1   
    21    14    15 ar  
    22    14    25 1   
    23    15    16 ar  
    24    15    20 1   
    25    16    26 1   
    26    17    18 1   
    27    17    19 1   
@<TRIPOS>SUBSTRUCTURE
     1 1JG         1 TEMP              0 ****  ****    0 ROOT
