@<TRIPOS>MOLECULE
molecule
   43    45     1     0     0
SMALL
bcc


@<TRIPOS>ATOM
      1 C1           0.0000     0.0000     0.0000 ca         1 1JH      -0.013500
      2 C2           1.3810     0.0000     0.0000 ca         1 1JH      -0.158000
      3 C3           2.0730     0.0000     1.1980 ca         1 1JH      -0.037300
      4 C4           1.3820     0.0020     2.3940 ca         1 1JH      -0.158000
      5 C5          -0.0010     0.0030     2.3940 ca         1 1JH      -0.013500
      6 C6          -0.6920     0.0020     1.1960 ca         1 1JH      -0.302500
      7 S7          -2.4540     0.0100     1.1970 sy         1 1JH       1.426200
      8 O8          -2.8520     0.5550     2.4470 o          1 1JH      -0.658300
      9 O9          -2.8520     0.5580    -0.0520 o          1 1JH      -0.658300
     10 N10         -2.9510    -1.5690     1.1940 nu         1 1JH      -0.736500
     11 C11         -2.6050    -2.4080     2.2480 ca         1 1JH       0.168600
     12 C12         -2.3160    -3.7600     2.0060 ca         1 1JH      -0.120600
     13 C13         -1.9630    -4.5930     3.0720 ca         1 1JH      -0.088000
     14 C14         -1.9030    -4.0810     4.3540 ca         1 1JH       0.033100
     15 C15         -2.1910    -2.7420     4.5880 ca         1 1JH      -0.126000
     16 C16         -2.5390    -1.9100     3.5430 ca         1 1JH      -0.214000
     17 C17         -2.3830    -4.2980     0.6360 c          1 1JH       0.888200
     18 O18         -2.6900    -3.5710    -0.2880 o          1 1JH      -0.829800
     19 O19         -2.1040    -5.5970     0.4070 o          1 1JH      -0.829800
     20 O20         -1.5600    -4.8910     5.3910 os         1 1JH      -0.250200
     21 C21         -0.2470    -5.2040     5.5500 ca         1 1JH       0.151100
     22 C22          0.1620    -5.9550     6.6420 ca         1 1JH      -0.183000
     23 C23          1.4970    -6.2700     6.8010 ca         1 1JH      -0.100000
     24 C24          2.4260    -5.8370     5.8740 ca         1 1JH      -0.181000
     25 C25          2.0220    -5.0880     4.7840 ca         1 1JH      -0.100000
     26 C26          0.6870    -4.7750     4.6170 ca         1 1JH      -0.183000
     27 C28          3.5800    -0.0010     1.1980 c3         1 1JH      -0.052800
     28 H1          -0.5410    -0.0000    -0.9380 ha         1 1JH       0.153000
     29 H2           1.9230    -0.0020    -0.9380 ha         1 1JH       0.128000
     30 H3           1.9230     0.0030     3.3330 ha         1 1JH       0.128000
     31 H4          -0.5430     0.0050     3.3320 ha         1 1JH       0.153000
     32 H5          -3.5480    -1.9040     0.4640 hn         1 1JH       0.507800
     33 H6          -1.7380    -5.6380     2.8930 ha         1 1JH       0.173000
     34 H7          -2.1410    -2.3480     5.5960 ha         1 1JH       0.125000
     35 H8          -2.7630    -0.8680     3.7340 ha         1 1JH       0.171000
     36 H10         -0.5660    -6.2950     7.3690 ha         1 1JH       0.148000
     37 H11          1.8160    -6.8570     7.6540 ha         1 1JH       0.122500
     38 H12          3.4730    -6.0840     6.0020 ha         1 1JH       0.117000
     39 H13          2.7520    -4.7520     4.0580 ha         1 1JH       0.122500
     40 H14          0.3710    -4.1880     3.7630 ha         1 1JH       0.148000
     41 H15          3.9420     0.7280     0.4830 hc         1 1JH       0.042033
     42 H16          3.9410    -0.9850     0.9240 hc         1 1JH       0.042033
     43 H17          3.9420     0.2530     2.1870 hc         1 1JH       0.042033
@<TRIPOS>BOND
     1    27     3 1   
     2    24    23 ar  
     3    24    25 ar  
     4    23    22 ar  
     5     3     4 ar  
     6     3     2 ar  
     7    25    26 ar  
     8    22    21 ar  
     9     4     5 ar  
    10     2     1 ar  
    11    26    21 ar  
    12    21    20 1   
    13     5     6 ar  
    14    20    14 1   
    15     1     6 ar  
    16    18    17 1   
    17    13    14 ar  
    18    13    12 ar  
    19    14    15 ar  
    20     6     7 1   
    21    17    12 1   
    22    17    19 1   
    23    12    11 ar  
    24    15    16 ar  
    25    11    16 ar  
    26    11    10 1   
    27     7    10 1   
    28     7     8 2   
    29     7     9 2   
    30     1    28 1   
    31     2    29 1   
    32     4    30 1   
    33     5    31 1   
    34    10    32 1   
    35    13    33 1   
    36    15    34 1   
    37    16    35 1   
    38    22    36 1   
    39    23    37 1   
    40    24    38 1   
    41    25    39 1   
    42    26    40 1   
    43    27    41 1   
    44    27    42 1   
    45    27    43 1   
@<TRIPOS>SUBSTRUCTURE
     1 1JH         1 TEMP              0 ****  ****    0 ROOT
