@<TRIPOS>MOLECULE
1JH
   43    45     1     0     0
SMALL
bcc


@<TRIPOS>ATOM
      1 C1           0.0000     0.0000     0.0000 ca         1 1JH       0.018000
      2 C2           1.3810     0.0000     0.0000 ca         1 1JH      -0.142000
      3 C3           2.0730     0.0000     1.1980 ca         1 1JH      -0.048300
      4 C4           1.3820     0.0020     2.3940 ca         1 1JH      -0.142000
      5 C5          -0.0010     0.0030     2.3940 ca         1 1JH       0.018000
      6 C6          -0.6920     0.0020     1.1960 ca         1 1JH      -0.149500
      7 S7          -2.4540     0.0100     1.1970 sy         1 1JH       1.026200
      8 O8          -2.8520     0.5550     2.4470 o          1 1JH      -0.611800
      9 O9          -2.8520     0.5580    -0.0520 o          1 1JH      -0.611800
     10 N10         -2.9510    -1.5690     1.1940 nu         1 1JH      -0.362500
     11 C11         -2.6050    -2.4080     2.2480 ca         1 1JH       0.093600
     12 C12         -2.3160    -3.7600     2.0060 ca         1 1JH      -0.134600
     13 C13         -1.9630    -4.5930     3.0720 ca         1 1JH      -0.061000
     14 C14         -1.9030    -4.0810     4.3540 ca         1 1JH       0.022100
     15 C15         -2.1910    -2.7420     4.5880 ca         1 1JH      -0.102000
     16 C16         -2.5390    -1.9100     3.5430 ca         1 1JH      -0.219000
     17 C17         -2.3830    -4.2980     0.6360 c          1 1JH       0.983200
     18 O18         -2.6900    -3.5710    -0.2880 o          1 1JH      -0.877300
     19 O19         -2.1040    -5.5970     0.4070 o          1 1JH      -0.877300
     20 O20         -1.5600    -4.8910     5.3910 os         1 1JH      -0.219200
     21 C21         -0.2470    -5.2040     5.5500 ca         1 1JH       0.161100
     22 C22          0.1620    -5.9550     6.6420 ca         1 1JH      -0.173000
     23 C23          1.4970    -6.2700     6.8010 ca         1 1JH      -0.067500
     24 C24          2.4260    -5.8370     5.8740 ca         1 1JH      -0.163000
     25 C25          2.0220    -5.0880     4.7840 ca         1 1JH      -0.067500
     26 C26          0.6870    -4.7750     4.6170 ca         1 1JH      -0.173000
     27 C28          3.5800    -0.0010     1.1980 c3         1 1JH       0.059200
     28 H1          -0.5410    -0.0000    -0.9380 ha         1 1JH       0.126000
     29 H2           1.9230    -0.0020    -0.9380 ha         1 1JH       0.105000
     30 H3           1.9230     0.0030     3.3330 ha         1 1JH       0.105000
     31 H4          -0.5430     0.0050     3.3320 ha         1 1JH       0.126000
     32 H5          -3.5480    -1.9040     0.4640 hn         1 1JH       0.402800
     33 H6          -1.7380    -5.6380     2.8930 ha         1 1JH       0.144000
     34 H7          -2.1410    -2.3480     5.5960 ha         1 1JH       0.097000
     35 H8          -2.7630    -0.8680     3.7340 ha         1 1JH       0.167000
     36 H10         -0.5660    -6.2950     7.3690 ha         1 1JH       0.126000
     37 H11          1.8160    -6.8570     7.6540 ha         1 1JH       0.093500
     38 H12          3.4730    -6.0840     6.0020 ha         1 1JH       0.094000
     39 H13          2.7520    -4.7520     4.0580 ha         1 1JH       0.093500
     40 H14          0.3710    -4.1880     3.7630 ha         1 1JH       0.126000
     41 H15          3.9420     0.7280     0.4830 hc         1 1JH       0.005367
     42 H16          3.9410    -0.9850     0.9240 hc         1 1JH       0.005367
     43 H17          3.9420     0.2530     2.1870 hc         1 1JH       0.005367
@<TRIPOS>BOND
     1     1     2 ar  
     2     1     6 ar  
     3     1    28 1   
     4     2     3 ar  
     5     2    29 1   
     6     3     4 ar  
     7     3    27 1   
     8     4     5 ar  
     9     4    30 1   
    10     5     6 ar  
    11     5    31 1   
    12     6     7 1   
    13     7     8 2   
    14     7     9 2   
    15     7    10 1   
    16    10    11 1   
    17    10    32 1   
    18    11    12 ar  
    19    11    16 ar  
    20    12    13 ar  
    21    12    17 1   
    22    13    14 ar  
    23    13    33 1   
    24    14    15 ar  
    25    14    20 1   
    26    15    16 ar  
    27    15    34 1   
    28    16    35 1   
    29    17    18 1   
    30    17    19 1   
    31    20    21 1   
    32    21    22 ar  
    33    21    26 ar  
    34    22    23 ar  
    35    22    36 1   
    36    23    24 ar  
    37    23    37 1   
    38    24    25 ar  
    39    24    38 1   
    40    25    26 ar  
    41    25    39 1   
    42    26    40 1   
    43    27    41 1   
    44    27    42 1   
    45    27    43 1   
@<TRIPOS>SUBSTRUCTURE
     1 1JH         1 TEMP              0 ****  ****    0 ROOT
