@<TRIPOS>MOLECULE
1JH
   43    45     1     0     0
SMALL
bcc


@<TRIPOS>ATOM
      1 C1           0.1310    -0.8000     0.3700 ca         1 1JH      -0.014000
      2 C2           1.5140    -0.6280     0.4240 ca         1 1JH      -0.166500
      3 C3           2.0730     0.3930     1.1960 ca         1 1JH      -0.032300
      4 C4           1.2250     1.2400     1.9230 ca         1 1JH      -0.166500
      5 C5          -0.1520     1.0640     1.8650 ca         1 1JH      -0.014000
      6 C6          -0.7220     0.0500     1.0830 ca         1 1JH      -0.376500
      7 S7          -2.4110    -0.0740     1.0070 sy         1 1JH       1.495200
      8 O8          -2.9420     0.5520     2.1670 o          1 1JH      -0.670800
      9 O9          -2.8540     0.5120    -0.2050 o          1 1JH      -0.670800
     10 N10         -2.7140    -1.6550     0.9690 nu         1 1JH      -0.767500
     11 C11         -2.5920    -2.5830     2.0170 ca         1 1JH       0.177600
     12 C12         -2.0190    -3.8610     1.7910 ca         1 1JH      -0.154600
     13 C13         -1.9670    -4.7780     2.8440 ca         1 1JH      -0.094000
     14 C14         -2.4460    -4.4290     4.1080 ca         1 1JH       0.027100
     15 C15         -2.9910    -3.1640     4.3500 ca         1 1JH      -0.121000
     16 C16         -3.0740    -2.2520     3.3070 ca         1 1JH      -0.183000
     17 C17         -1.4330    -4.3140     0.4580 c          1 1JH       0.914200
     18 O18         -1.0530    -5.5110     0.3660 o          1 1JH      -0.826300
     19 O19         -1.3310    -3.4840    -0.4990 o          1 1JH      -0.826300
     20 O20         -2.5150    -5.3740     5.1400 os         1 1JH      -0.255200
     21 C21         -1.3210    -5.7000     5.7600 ca         1 1JH       0.138100
     22 C22         -0.0650    -5.2220     5.3660 ca         1 1JH      -0.175500
     23 C23          1.0670    -5.6270     6.0710 ca         1 1JH      -0.104500
     24 C24          0.9530    -6.4960     7.1560 ca         1 1JH      -0.179000
     25 C25         -0.3020    -6.9690     7.5400 ca         1 1JH      -0.104500
     26 C26         -1.4460    -6.5790     6.8520 ca         1 1JH      -0.175500
     27 C28          3.5400     0.5850     1.2420 c3         1 1JH      -0.057800
     28 H1          -0.2790    -1.6430    -0.2320 ha         1 1JH       0.177500
     29 H2           2.1650    -1.3130    -0.1400 ha         1 1JH       0.131500
     30 H3           1.6520     2.0410     2.5430 ha         1 1JH       0.131500
     31 H4          -0.8150     1.7250     2.4510 ha         1 1JH       0.177500
     32 H5          -2.6960    -2.1270     0.0700 hn         1 1JH       0.504800
     33 H6          -1.5370    -5.7770     2.6510 ha         1 1JH       0.176000
     34 H7          -3.3640    -2.9050     5.3510 ha         1 1JH       0.132000
     35 H8          -3.5130    -1.2580     3.4980 ha         1 1JH       0.158000
     36 H10          0.0230    -4.5460     4.5010 ha         1 1JH       0.151500
     37 H11          2.0560    -5.2590     5.7620 ha         1 1JH       0.123000
     38 H12          1.8510    -6.8110     7.7050 ha         1 1JH       0.120000
     39 H13         -0.3910    -7.6580     8.3930 ha         1 1JH       0.123000
     40 H14         -2.4400    -6.9460     7.1410 ha         1 1JH       0.151500
     41 H15          3.8570     1.0290     2.2180 hc         1 1JH       0.041367
     42 H16          3.8580     1.2780     0.4220 hc         1 1JH       0.041367
     43 H17          4.0740    -0.3880     1.1050 hc         1 1JH       0.041367
@<TRIPOS>BOND
     1     1     2 ar  
     2     1     6 ar  
     3     1    28 1   
     4     2     3 ar  
     5     2    29 1   
     6     3     4 ar  
     7     3    27 1   
     8     4     5 ar  
     9     4    30 1   
    10     5     6 ar  
    11     5    31 1   
    12     6     7 1   
    13     7     8 2   
    14     7     9 2   
    15     7    10 1   
    16    10    11 1   
    17    10    32 1   
    18    11    12 ar  
    19    11    16 ar  
    20    12    13 ar  
    21    12    17 1   
    22    13    14 ar  
    23    13    33 1   
    24    14    15 ar  
    25    14    20 1   
    26    15    16 ar  
    27    15    34 1   
    28    16    35 1   
    29    17    18 1   
    30    17    19 1   
    31    20    21 1   
    32    21    22 ar  
    33    21    26 ar  
    34    22    23 ar  
    35    22    36 1   
    36    23    24 ar  
    37    23    37 1   
    38    24    25 ar  
    39    24    38 1   
    40    25    26 ar  
    41    25    39 1   
    42    26    40 1   
    43    27    41 1   
    44    27    42 1   
    45    27    43 1   
@<TRIPOS>SUBSTRUCTURE
     1 1JH         1 TEMP              0 ****  ****    0 ROOT
