@<TRIPOS>MOLECULE
1JJ
   15    14     1     0     0
SMALL
bcc


@<TRIPOS>ATOM
      1 C1           1.9850    -0.1440    -0.1300 c3         1 1JJ      -0.046100
      2 C2           2.5290    -0.4340     1.2460 c3         1 1JJ      -0.091400
      3 C3           3.8390     0.2630     1.5270 c3         1 1JJ      -0.065100
      4 O1          -0.0920     0.5820     1.3980 o          1 1JJ      -0.942833
      5 O2          -0.4410    -0.9090    -0.6310 o          1 1JJ      -0.942833
      6 P1           0.2330     0.3250    -0.0570 p5         1 1JJ       1.196700
      7 O3           2.1390    -1.2700    -0.9710 oh         1 1JJ      -0.680800
      8 O4           0.1710     1.5550    -0.9320 o          1 1JJ      -0.942833
      9 H1           2.5510     0.6890    -0.6160 h1         1 1JJ       0.022700
     10 H2           1.7550    -0.1000     1.9970 hc         1 1JJ       0.047700
     11 H3           2.6870    -1.5400     1.3770 hc         1 1JJ       0.047700
     12 H4           3.7150     1.3700     1.4440 hc         1 1JJ      -0.009967
     13 H5           4.6240    -0.0540     0.7980 hc         1 1JJ      -0.009967
     14 H6           4.2080     0.0300     2.5570 hc         1 1JJ      -0.009967
     15 H8           1.2430    -1.6390    -1.1020 ho         1 1JJ       0.427000
@<TRIPOS>BOND
     1     1     2 1   
     2     1     6 1   
     3     1     7 1   
     4     1     9 1   
     5     2     3 1   
     6     2    10 1   
     7     2    11 1   
     8     3    12 1   
     9     3    13 1   
    10     3    14 1   
    11     4     6 1   
    12     5     6 1   
    13     6     8 1   
    14     7    15 1   
@<TRIPOS>SUBSTRUCTURE
     1 1JJ         1 TEMP              0 ****  ****    0 ROOT
