@<TRIPOS>MOLECULE
molecule
   15    14     1     0     0
SMALL
bcc


@<TRIPOS>ATOM
      1 C1           1.8230     0.0000     0.0000 c3         1 1JJ      -0.007100
      2 C2           2.3330     0.0000     1.4420 c3         1 1JJ      -0.052400
      3 C3           3.8580     0.1270     1.4440 c3         1 1JJ      -0.092100
      4 O1          -0.5360    -1.3150     0.7590 o          1 1JJ      -0.912500
      5 O2          -0.4940     1.2090     0.6980 o          1 1JJ      -0.912500
      6 P1           0.0000     0.0000     0.0000 p5         1 1JJ       1.039700
      7 O3           2.2990    -1.1660    -0.6740 oh         1 1JJ      -0.620800
      8 O4          -0.5370    -0.0000    -1.5180 o          1 1JJ      -0.912500
      9 H1           2.1840     0.8850    -0.5110 h1         1 1JJ      -0.008300
     10 H2           2.0470    -0.9260     1.9260 hc         1 1JJ       0.053700
     11 H3           1.9010     0.8360     1.9780 hc         1 1JJ       0.053700
     12 H4           4.2960    -0.7770     1.0370 hc         1 1JJ      -0.001300
     13 H5           4.2060     0.2710     2.4600 hc         1 1JJ      -0.001300
     14 H6           4.1510     0.9750     0.8380 hc         1 1JJ      -0.001300
     15 H8           2.3470    -0.9960    -1.6000 ho         1 1JJ       0.373000
@<TRIPOS>BOND
     1     5     6 1   
     2     8     6 1   
     3     6     4 1   
     4     6     1 1   
     5     7     1 1   
     6     1     2 1   
     7     2     3 1   
     8     1     9 1   
     9     2    10 1   
    10     2    11 1   
    11     3    12 1   
    12     3    13 1   
    13     3    14 1   
    14     7    15 1   
@<TRIPOS>SUBSTRUCTURE
     1 1JJ         1 TEMP              0 ****  ****    0 ROOT
