@<TRIPOS>MOLECULE
1JJ
   15    14     1     0     0
SMALL
bcc


@<TRIPOS>ATOM
      1 C1          1.9140    0.0310   -0.1030 c3        1 1JJ     -0.046100
      2 C2          2.4670   -0.5260    1.1850 c3        1 1JJ     -0.091400
      3 C3          3.7080    0.1920    1.6590 c3        1 1JJ     -0.065100
      4 O1         -0.2340    0.2050    1.4880 o         1 1JJ     -0.942833
      5 O2         -0.0340    1.7130   -0.5450 o         1 1JJ     -0.942833
      6 P1          0.1280    0.3230    0.0230 p5        1 1JJ      1.196700
      7 O3          2.1760   -0.8500   -1.1770 oh        1 1JJ     -0.680800
      8 O4         -0.4290   -0.7950   -0.8420 o         1 1JJ     -0.942833
      9 H1          2.4100    0.9990   -0.3650 h1        1 1JJ      0.022700
     10 H2          1.6590   -0.4410    1.9680 hc        1 1JJ      0.047700
     11 H3          2.7200   -1.6150    1.0600 hc        1 1JJ      0.047700
     12 H4          4.0860   -0.2450    2.6180 hc        1 1JJ     -0.009967
     13 H5          4.5260    0.1190    0.9010 hc        1 1JJ     -0.009967
     14 H6          3.4900    1.2730    1.8310 hc        1 1JJ     -0.009967
     15 H8          1.3170   -1.2510   -1.4180 ho        1 1JJ      0.427000
@<TRIPOS>BOND
     1    1    2 1   
     2    1    6 1   
     3    1    7 1   
     4    1    9 1   
     5    2    3 1   
     6    2   10 1   
     7    2   11 1   
     8    3   12 1   
     9    3   13 1   
    10    3   14 1   
    11    4    6 1   
    12    5    6 1   
    13    6    8 1   
    14    7   15 1   
@<TRIPOS>SUBSTRUCTURE
     1 1JJ         1 TEMP              0 ****  ****    0 ROOT
