@<TRIPOS>MOLECULE
1JK
   29    29     1     0     0
SMALL
bcc


@<TRIPOS>ATOM
      1 OAC        -0.5660   -0.0790    0.4300 o         1 1JK     -0.837300
      2 CAJ         3.9530    1.4680    9.6180 ce        1 1JK     -0.063700
      3 CAO         3.5050    1.4230    8.3480 cf        1 1JK     -0.073000
      4 CAP         4.8940    2.3810   10.1150 cg        1 1JK     -0.145300
      5 CAU         3.9290    2.3320    7.3100 cf        1 1JK     -0.138000
      6 CAV         5.6960    3.1500   10.5660 c1        1 1JK     -0.178500
      7 CBA         2.4780    1.3360    3.9290 cc        1 1JK     -0.391600
      8 CBC         1.1970   -0.4620    2.4740 c3        1 1JK     -0.131700
      9 CBF         2.8970   -0.9020    0.6850 c3        1 1JK     -0.070100
     10 NBG         2.7670   -0.1000    5.6890 nd        1 1JK     -0.387300
     11 OBK         2.1320   -0.7420    4.7340 os        1 1JK     -0.133100
     12 CBN         0.6370    0.0040    0.0510 c         1 1JK      0.915600
     13 CBS         1.9240    0.1090    3.6140 cd        1 1JK      0.327000
     14 CBT         3.7020    2.2190    5.9920 ce        1 1JK     -0.172800
     15 CBU         3.0120    1.1690    5.2810 cc        1 1JK      0.344100
     16 CBV         1.7560   -0.0210    1.1310 c3        1 1JK     -0.188700
     17 HAP         6.4050    3.8280   10.9620 ha        1 1JK      0.158500
     18 HAU         4.4960    3.2140    7.6680 ha        1 1JK      0.124000
     19 HAV         4.0700    3.0170    5.3180 ha        1 1JK      0.131000
     20 HBAA        2.5180    2.2360    3.3270 ha        1 1JK      0.175000
     21 HBC         0.1170   -0.1270    2.5300 hc        1 1JK      0.089700
     22 HBCA        1.1980   -1.5820    2.5450 hc        1 1JK      0.089700
     23 HBF         2.1220    1.0390    1.2130 hc        1 1JK      0.035700
     24 HBFA        3.7680   -0.8140    1.3790 hc        1 1JK      0.022367
     25 HBV         2.5780   -1.9720    0.6520 hc        1 1JK      0.022367
     26 OXT         0.9970    0.1390   -1.1510 o         1 1JK     -0.837300
     27 H2          3.2120   -0.6000   -0.3440 hc        1 1JK      0.022367
     28 HAJ         3.5760    0.7400   10.3600 ha        1 1JK      0.135000
     29 HAO         2.7610    0.6530    8.0760 ha        1 1JK      0.155000
@<TRIPOS>BOND
     1    1   12 1   
     2    2    3 2   
     3    2    4 1   
     4    2   28 1   
     5    3    5 1   
     6    3   29 1   
     7    4    6 3   
     8    5   14 2   
     9    5   18 1   
    10    6   17 1   
    11    7   13 2   
    12    7   15 1   
    13    7   20 1   
    14    8   13 1   
    15    8   16 1   
    16    8   21 1   
    17    8   22 1   
    18    9   16 1   
    19    9   24 1   
    20    9   25 1   
    21    9   27 1   
    22   10   11 1   
    23   10   15 2   
    24   11   13 1   
    25   12   16 1   
    26   12   26 1   
    27   14   15 1   
    28   14   19 1   
    29   16   23 1   
@<TRIPOS>SUBSTRUCTURE
     1 1JK         1 TEMP              0 ****  ****    0 ROOT
