@<TRIPOS>MOLECULE
molecule
   43    45     1     0     0
SMALL
bcc


@<TRIPOS>ATOM
      1 C1           0.0000     0.0000     0.0000 ca         1 1JL      -0.012000
      2 C2           1.3820     0.0000     0.0000 ca         1 1JL      -0.157500
      3 C3           2.0740     0.0000     1.1970 ca         1 1JL      -0.037300
      4 C4           1.3830     0.0010     2.3940 ca         1 1JL      -0.157500
      5 C5           0.0010     0.0010     2.3940 ca         1 1JL      -0.012000
      6 C6          -0.6910     0.0000     1.1980 ca         1 1JL      -0.303500
      7 S7          -2.4520     0.0070     1.1970 sy         1 1JL       1.424200
      8 O8          -2.8520     0.5510     2.4490 o          1 1JL      -0.656800
      9 O9          -2.8520     0.5560    -0.0510 o          1 1JL      -0.656800
     10 N10         -2.9490    -1.5720     1.1940 nu         1 1JL      -0.736500
     11 C11         -2.6030    -2.4120     2.2460 ca         1 1JL       0.172600
     12 C12         -2.3120    -3.7650     2.0040 ca         1 1JL      -0.121600
     13 C13         -1.9640    -4.6010     3.0710 ca         1 1JL      -0.069000
     14 C14         -1.9080    -4.1010     4.3410 ca         1 1JL      -0.176000
     15 C15         -2.1960    -2.7620     4.5860 ca         1 1JL       0.084100
     16 C16         -2.5370    -1.9170     3.5400 ca         1 1JL      -0.236000
     17 C17         -2.3730    -4.3010     0.6360 c          1 1JL       0.887200
     18 O18         -2.0930    -5.6000     0.4080 o          1 1JL      -0.831300
     19 O19         -2.6760    -3.5730    -0.2890 o          1 1JL      -0.831300
     20 O20         -2.1380    -2.2780     5.8520 os         1 1JL      -0.251200
     21 C21         -3.3080    -2.0790     6.5130 ca         1 1JL       0.153100
     22 C22         -3.2960    -1.6650     7.8380 ca         1 1JL      -0.182000
     23 C23         -4.4860    -1.4580     8.5070 ca         1 1JL      -0.100000
     24 C24         -5.6900    -1.6630     7.8570 ca         1 1JL      -0.179000
     25 C25         -5.7050    -2.0750     6.5380 ca         1 1JL      -0.100000
     26 C26         -4.5170    -2.2840     5.8650 ca         1 1JL      -0.182000
     27 C27          3.5810    -0.0010     1.1970 c3         1 1JL      -0.052800
     28 H1          -0.5420    -0.0000    -0.9380 ha         1 1JL       0.154500
     29 H2           1.9230    -0.0010    -0.9380 ha         1 1JL       0.128000
     30 H3           1.9250     0.0010     3.3320 ha         1 1JL       0.128000
     31 H4          -0.5400     0.0020     3.3330 ha         1 1JL       0.154500
     32 H5          -3.5400    -1.9080     0.4600 hn         1 1JL       0.506800
     33 H6          -1.7380    -5.6440     2.8900 ha         1 1JL       0.164000
     34 H7          -1.6350    -4.7520     5.1630 ha         1 1JL       0.124000
     35 H8          -2.8210    -0.8910     3.7430 ha         1 1JL       0.180000
     36 H10         -2.3530    -1.5050     8.3470 ha         1 1JL       0.147500
     37 H11         -4.4770    -1.1340     9.5410 ha         1 1JL       0.123000
     38 H12         -6.6220    -1.5000     8.3830 ha         1 1JL       0.117000
     39 H13         -6.6490    -2.2350     6.0320 ha         1 1JL       0.123000
     40 H14         -4.5290    -2.6070     4.8310 ha         1 1JL       0.147500
     41 H15          3.9430     0.7320     0.4870 hc         1 1JL       0.041367
     42 H16          3.9410    -0.9840     0.9170 hc         1 1JL       0.041367
     43 H17          3.9420     0.2470     2.1880 hc         1 1JL       0.041367
@<TRIPOS>BOND
     1    27     3 1   
     2    23    24 ar  
     3    23    22 ar  
     4    24    25 ar  
     5    22    21 ar  
     6     3     2 ar  
     7     3     4 ar  
     8    25    26 ar  
     9     2     1 ar  
    10     4     5 ar  
    11    21    26 ar  
    12    21    20 1   
    13    14    13 ar  
    14    14    15 ar  
    15     1     6 ar  
    16    13    12 ar  
    17     5     6 ar  
    18    20    15 1   
    19    15    16 ar  
    20     6     7 1   
    21    12    17 1   
    22    12    11 ar  
    23    19    17 1   
    24    17    18 1   
    25    16    11 ar  
    26    11    10 1   
    27     7    10 1   
    28     7     9 2   
    29     7     8 2   
    30     1    28 1   
    31     2    29 1   
    32     4    30 1   
    33     5    31 1   
    34    10    32 1   
    35    13    33 1   
    36    14    34 1   
    37    16    35 1   
    38    22    36 1   
    39    23    37 1   
    40    24    38 1   
    41    25    39 1   
    42    26    40 1   
    43    27    41 1   
    44    27    42 1   
    45    27    43 1   
@<TRIPOS>SUBSTRUCTURE
     1 1JL         1 TEMP              0 ****  ****    0 ROOT
