@<TRIPOS>MOLECULE
1JL
   43    45     1     0     0
SMALL
bcc


@<TRIPOS>ATOM
      1 C1           0.0000     0.0000     0.0000 ca         1 1JL       0.019000
      2 C2           1.3820     0.0000     0.0000 ca         1 1JL      -0.142000
      3 C3           2.0740     0.0000     1.1970 ca         1 1JL      -0.048300
      4 C4           1.3830     0.0010     2.3940 ca         1 1JL      -0.142000
      5 C5           0.0010     0.0010     2.3940 ca         1 1JL       0.019000
      6 C6          -0.6910     0.0000     1.1980 ca         1 1JL      -0.149500
      7 S7          -2.4520     0.0070     1.1970 sy         1 1JL       1.024200
      8 O8          -2.8520     0.5510     2.4490 o          1 1JL      -0.610800
      9 O9          -2.8520     0.5560    -0.0510 o          1 1JL      -0.610800
     10 N10         -2.9490    -1.5720     1.1940 nu         1 1JL      -0.363500
     11 C11         -2.6030    -2.4120     2.2460 ca         1 1JL       0.104600
     12 C12         -2.3120    -3.7650     2.0040 ca         1 1JL      -0.144600
     13 C13         -1.9640    -4.6010     3.0710 ca         1 1JL      -0.030000
     14 C14         -1.9080    -4.1010     4.3410 ca         1 1JL      -0.173000
     15 C15         -2.1960    -2.7620     4.5860 ca         1 1JL       0.092100
     16 C16         -2.5370    -1.9170     3.5400 ca         1 1JL      -0.251000
     17 C17         -2.3730    -4.3010     0.6360 c          1 1JL       0.984200
     18 O18         -2.0930    -5.6000     0.4080 o          1 1JL      -0.879300
     19 O19         -2.6760    -3.5730    -0.2890 o          1 1JL      -0.879300
     20 O20         -2.1380    -2.2780     5.8520 os         1 1JL      -0.223200
     21 C21         -3.3080    -2.0790     6.5130 ca         1 1JL       0.164100
     22 C22         -3.2960    -1.6650     7.8380 ca         1 1JL      -0.172000
     23 C23         -4.4860    -1.4580     8.5070 ca         1 1JL      -0.067500
     24 C24         -5.6900    -1.6630     7.8570 ca         1 1JL      -0.162000
     25 C25         -5.7050    -2.0750     6.5380 ca         1 1JL      -0.067500
     26 C26         -4.5170    -2.2840     5.8650 ca         1 1JL      -0.172000
     27 C27          3.5810    -0.0010     1.1970 c3         1 1JL       0.059200
     28 H1          -0.5420    -0.0000    -0.9380 ha         1 1JL       0.127000
     29 H2           1.9230    -0.0010    -0.9380 ha         1 1JL       0.104500
     30 H3           1.9250     0.0010     3.3320 ha         1 1JL       0.104500
     31 H4          -0.5400     0.0020     3.3330 ha         1 1JL       0.127000
     32 H5          -3.5400    -1.9080     0.4600 hn         1 1JL       0.401800
     33 H6          -1.7380    -5.6440     2.8900 ha         1 1JL       0.132000
     34 H7          -1.6350    -4.7520     5.1630 ha         1 1JL       0.100000
     35 H8          -2.8210    -0.8910     3.7430 ha         1 1JL       0.177000
     36 H10         -2.3530    -1.5050     8.3470 ha         1 1JL       0.125500
     37 H11         -4.4770    -1.1340     9.5410 ha         1 1JL       0.093500
     38 H12         -6.6220    -1.5000     8.3830 ha         1 1JL       0.094000
     39 H13         -6.6490    -2.2350     6.0320 ha         1 1JL       0.093500
     40 H14         -4.5290    -2.6070     4.8310 ha         1 1JL       0.125500
     41 H15          3.9430     0.7320     0.4870 hc         1 1JL       0.005033
     42 H16          3.9410    -0.9840     0.9170 hc         1 1JL       0.005033
     43 H17          3.9420     0.2470     2.1880 hc         1 1JL       0.005033
@<TRIPOS>BOND
     1     1     2 ar  
     2     1     6 ar  
     3     1    28 1   
     4     2     3 ar  
     5     2    29 1   
     6     3     4 ar  
     7     3    27 1   
     8     4     5 ar  
     9     4    30 1   
    10     5     6 ar  
    11     5    31 1   
    12     6     7 1   
    13     7     8 2   
    14     7     9 2   
    15     7    10 1   
    16    10    11 1   
    17    10    32 1   
    18    11    12 ar  
    19    11    16 ar  
    20    12    13 ar  
    21    12    17 1   
    22    13    14 ar  
    23    13    33 1   
    24    14    15 ar  
    25    14    34 1   
    26    15    16 ar  
    27    15    20 1   
    28    16    35 1   
    29    17    18 1   
    30    17    19 1   
    31    20    21 1   
    32    21    22 ar  
    33    21    26 ar  
    34    22    23 ar  
    35    22    36 1   
    36    23    24 ar  
    37    23    37 1   
    38    24    25 ar  
    39    24    38 1   
    40    25    26 ar  
    41    25    39 1   
    42    26    40 1   
    43    27    41 1   
    44    27    42 1   
    45    27    43 1   
@<TRIPOS>SUBSTRUCTURE
     1 1JL         1 TEMP              0 ****  ****    0 ROOT
