@<TRIPOS>MOLECULE
1JL
   43    45     1     0     0
SMALL
bcc


@<TRIPOS>ATOM
      1 C1           0.2890    -0.3440    -0.3290 ca         1 1JL      -0.014000
      2 C2           1.6500    -0.5110    -0.1050 ca         1 1JL      -0.167500
      3 C3           2.2180    -0.0980     1.1080 ca         1 1JL      -0.032300
      4 C4           1.3990     0.4810     2.0800 ca         1 1JL      -0.167500
      5 C5           0.0330     0.6450     1.8500 ca         1 1JL      -0.014000
      6 C6          -0.5420     0.2270     0.6450 ca         1 1JL      -0.376500
      7 S7          -2.2050     0.3470     0.3360 sy         1 1JL       1.495200
      8 O8          -2.8710    -0.6970     1.0270 o          1 1JL      -0.669300
      9 O9          -2.3860     0.3040    -1.0720 o          1 1JL      -0.669300
     10 N10         -2.6460     1.7600     0.9690 nu         1 1JL      -0.766500
     11 C11         -2.3440     3.0500     0.5010 ca         1 1JL       0.182600
     12 C12         -1.9710     4.0810     1.4010 ca         1 1JL      -0.158600
     13 C13         -1.7330     5.3660     0.9030 ca         1 1JL      -0.083000
     14 C14         -1.8270     5.6580    -0.4530 ca         1 1JL      -0.180000
     15 C15         -2.1820     4.6280    -1.3300 ca         1 1JL       0.075100
     16 C16         -2.4430     3.3330    -0.8820 ca         1 1JL      -0.186000
     17 C17         -1.8030     3.8830     2.9040 c          1 1JL       0.914200
     18 O18         -1.8250     2.7100     3.3900 o          1 1JL      -0.827800
     19 O19         -1.6300     4.9120     3.6100 o          1 1JL      -0.827800
     20 O20         -2.4140     4.9090    -2.6840 os         1 1JL      -0.255200
     21 C21         -1.2910     5.0600    -3.4790 ca         1 1JL       0.140100
     22 C22          0.0250     4.8870    -3.0300 ca         1 1JL      -0.176000
     23 C23          1.0750     5.0590    -3.9290 ca         1 1JL      -0.104500
     24 C24          0.8230     5.3990    -5.2580 ca         1 1JL      -0.178000
     25 C25         -0.4910     5.5680    -5.6960 ca         1 1JL      -0.104500
     26 C26         -1.5570     5.4020    -4.8180 ca         1 1JL      -0.176000
     27 C27          3.6710    -0.2570     1.3450 c3         1 1JL      -0.057800
     28 H1          -0.1510    -0.6570    -1.2920 ha         1 1JL       0.178000
     29 H2           2.2850    -0.9630    -0.8810 ha         1 1JL       0.131500
     30 H3           1.8300     0.8210     3.0340 ha         1 1JL       0.131500
     31 H4          -0.5850     1.1390     2.6330 ha         1 1JL       0.178000
     32 H5          -2.8960     1.7880     1.9530 hn         1 1JL       0.503800
     33 H6          -1.4620     6.1520     1.6300 ha         1 1JL       0.166000
     34 H7          -1.6350     6.6690    -0.8350 ha         1 1JL       0.131000
     35 H8          -2.7250     2.5530    -1.6090 ha         1 1JL       0.170000
     36 H10          0.2180     4.6180    -1.9810 ha         1 1JL       0.151000
     37 H11          2.1100     4.9230    -3.5830 ha         1 1JL       0.123500
     38 H12          1.6580     5.5320    -5.9600 ha         1 1JL       0.120000
     39 H13         -0.6890     5.8340    -6.7450 ha         1 1JL       0.123500
     40 H14         -2.5970     5.5280    -5.1490 ha         1 1JL       0.151000
     41 H15          4.0770    -1.1340     0.7850 hc         1 1JL       0.041700
     42 H16          3.8860    -0.3990     2.4330 hc         1 1JL       0.041700
     43 H17          4.2130     0.6610     1.0000 hc         1 1JL       0.041700
@<TRIPOS>BOND
     1     1     2 ar  
     2     1     6 ar  
     3     1    28 1   
     4     2     3 ar  
     5     2    29 1   
     6     3     4 ar  
     7     3    27 1   
     8     4     5 ar  
     9     4    30 1   
    10     5     6 ar  
    11     5    31 1   
    12     6     7 1   
    13     7     8 2   
    14     7     9 2   
    15     7    10 1   
    16    10    11 1   
    17    10    32 1   
    18    11    12 ar  
    19    11    16 ar  
    20    12    13 ar  
    21    12    17 1   
    22    13    14 ar  
    23    13    33 1   
    24    14    15 ar  
    25    14    34 1   
    26    15    16 ar  
    27    15    20 1   
    28    16    35 1   
    29    17    18 1   
    30    17    19 1   
    31    20    21 1   
    32    21    22 ar  
    33    21    26 ar  
    34    22    23 ar  
    35    22    36 1   
    36    23    24 ar  
    37    23    37 1   
    38    24    25 ar  
    39    24    38 1   
    40    25    26 ar  
    41    25    39 1   
    42    26    40 1   
    43    27    41 1   
    44    27    42 1   
    45    27    43 1   
@<TRIPOS>SUBSTRUCTURE
     1 1JL         1 TEMP              0 ****  ****    0 ROOT
