@<TRIPOS>MOLECULE
1JN
   42    45     1     0     0
SMALL
bcc


@<TRIPOS>ATOM
      1 C4          -0.1240     0.1520     0.2280 ca         1 1JN      -0.203000
      2 C5           0.1380     0.5590     2.6270 ca         1 1JN      -0.095300
      3 C6          -0.4700     0.8350     3.9470 c3         1 1JN      -0.043800
      4 C7           1.5170     0.4410     2.4730 ca         1 1JN      -0.083000
      5 C8           1.2610     0.0450     0.1020 ca         1 1JN      -0.087000
      6 C10          5.4370     2.6830     2.7950 ca         1 1JN       0.063400
      7 C13          4.8530     1.3520     2.8170 ca         1 1JN      -0.074200
      8 C15          6.3900     1.4950     7.2840 c3         1 1JN      -0.078400
      9 C17          5.6470     0.4630     6.4250 c3         1 1JN      -0.036100
     10 C20          4.8770     0.5520     3.9710 ca         1 1JN      -0.128000
     11 C22          3.5710     0.0180     1.0800 c3         1 1JN       0.101600
     12 C1          -2.8880     0.4170     0.5820 c3         1 1JN       0.112700
     13 O2          -2.0380     0.5330     1.7180 os         1 1JN      -0.323900
     14 C3          -0.6830     0.4090     1.4840 ca         1 1JN       0.130100
     15 C9           2.0840     0.1830     1.2190 ca         1 1JN      -0.155300
     16 N11          5.2670     3.2460     1.5120 nc         1 1JN      -0.566100
     17 C12          4.6170     2.3160     0.7980 cd         1 1JN       0.420700
     18 C14          6.0520     3.2010     3.9480 ca         1 1JN      -0.057000
     19 C16          6.6500     2.7260     6.4050 c3         1 1JN      -0.032100
     20 C18          6.0650     2.4000     5.0710 ca         1 1JN      -0.108300
     21 C19          5.4880     1.0970     5.0830 ca         1 1JN      -0.067300
     22 N21          4.3620     1.1280     1.5200 na         1 1JN      -0.169300
     23 H1          -0.7580     0.0370    -0.6610 ha         1 1JN       0.139000
     24 H2           0.3080     0.9430     4.7400 hc         1 1JN       0.049033
     25 H3          -1.0710     1.7780     3.9000 hc         1 1JN       0.049033
     26 H4          -1.1640     0.0040     4.2300 hc         1 1JN       0.049033
     27 H5           2.1750     0.5580     3.3500 ha         1 1JN       0.146000
     28 H6           1.6970    -0.1540    -0.8890 ha         1 1JN       0.131000
     29 H7           7.3540     1.0710     7.6550 hc         1 1JN       0.043700
     30 H8           5.7760     1.7750     8.1740 hc         1 1JN       0.043700
     31 H9           4.6490     0.2160     6.8680 hc         1 1JN       0.052200
     32 H10          6.2310    -0.4880     6.3470 hc         1 1JN       0.052200
     33 H11          4.4360    -0.4520     3.9840 ha         1 1JN       0.136000
     34 H12          3.8850    -0.8870     1.6820 h1         1 1JN       0.064700
     35 H13          3.8270    -0.1740    -0.0030 h1         1 1JN       0.064700
     36 H14         -2.6550     1.2110    -0.1680 h1         1 1JN       0.045367
     37 H15         -3.9120     0.5650     1.0090 h1         1 1JN       0.045367
     38 H16         -2.7950    -0.5970     0.1220 h1         1 1JN       0.045367
     39 H17          4.3160     2.4210    -0.2510 h5         1 1JN       0.066800
     40 H18          6.5000     4.2040     3.9410 ha         1 1JN       0.149000
     41 H19          7.7470     2.9310     6.3180 hc         1 1JN       0.052700
     42 H20          6.1670     3.6380     6.8390 hc         1 1JN       0.052700
@<TRIPOS>BOND
     1     1     5 ar  
     2     1    14 ar  
     3     1    23 1   
     4     2     3 1   
     5     2     4 ar  
     6     2    14 ar  
     7     3    24 1   
     8     3    25 1   
     9     3    26 1   
    10     4    15 ar  
    11     4    27 1   
    12     5    15 ar  
    13     5    28 1   
    14     6     7 ar  
    15     6    16 1   
    16     6    18 ar  
    17     7    10 ar  
    18     7    22 1   
    19     8     9 1   
    20     8    19 1   
    21     8    29 1   
    22     8    30 1   
    23     9    21 1   
    24     9    31 1   
    25     9    32 1   
    26    10    21 ar  
    27    10    33 1   
    28    11    15 1   
    29    11    22 1   
    30    11    34 1   
    31    11    35 1   
    32    12    13 1   
    33    12    36 1   
    34    12    37 1   
    35    12    38 1   
    36    13    14 1   
    37    16    17 2   
    38    17    22 1   
    39    17    39 1   
    40    18    20 ar  
    41    18    40 1   
    42    19    20 1   
    43    19    41 1   
    44    19    42 1   
    45    20    21 ar  
@<TRIPOS>SUBSTRUCTURE
     1 1JN         1 TEMP              0 ****  ****    0 ROOT
