@<TRIPOS>MOLECULE
molecule
   42    45     1     0     0
SMALL
bcc


@<TRIPOS>ATOM
      1 C4           0.0000     0.0000     0.0000 ca         1 1JN      -0.217000
      2 C5           0.0050     0.0130     2.4020 ca         1 1JN      -0.109300
      3 C6          -0.7450     0.0140     3.7090 c3         1 1JN      -0.035800
      4 C7           1.3860     0.0020     2.3960 ca         1 1JN      -0.075000
      5 C8           1.3820     0.0000     0.0000 ca         1 1JN      -0.071000
      6 C10          4.7020    -3.4320     0.5590 ca         1 1JN       0.091400
      7 C13          4.2310    -2.1980     0.0780 ca         1 1JN      -0.086200
      8 C15          4.2080    -4.6070    -4.0220 c3         1 1JN      -0.080400
      9 C17          4.1920    -3.1050    -3.6700 c3         1 1JN      -0.031100
     10 C20          4.0420    -2.0190    -1.2840 ca         1 1JN      -0.118000
     11 C22          3.5810    -0.0120     1.1950 c3         1 1JN       0.105600
     12 C1          -2.7020     0.0000    -0.0670 c3         1 1JN       0.127700
     13 O2          -2.0510     0.0070     1.2040 os         1 1JN      -0.324900
     14 C3          -0.6930     0.0070     1.2020 ca         1 1JN       0.151100
     15 C9           2.0740     0.0000     1.1980 ca         1 1JN      -0.159300
     16 N11          4.7850    -3.3240     1.9110 nc         1 1JN      -0.603100
     17 C12          4.4110    -2.1320     2.2770 cd         1 1JN       0.428700
     18 C14          4.9740    -4.4600    -0.3430 ca         1 1JN      -0.058000
     19 C16          5.0080    -5.2130    -2.8460 c3         1 1JN      -0.029100
     20 C18          4.7880    -4.2660    -1.6870 ca         1 1JN      -0.109300
     21 C19          4.3150    -3.0490    -2.1610 ca         1 1JN      -0.077300
     22 N21          4.0580    -1.3970     1.1890 na         1 1JN      -0.153300
     23 H1          -0.5420    -0.0020    -0.9380 ha         1 1JN       0.138000
     24 H2          -1.3840    -0.8590     3.7600 hc         1 1JN       0.045700
     25 H3          -0.0390    -0.0060     4.5300 hc         1 1JN       0.045700
     26 H4          -1.3510     0.9090     3.7760 hc         1 1JN       0.045700
     27 H5           1.9310     0.0020     3.3330 ha         1 1JN       0.133000
     28 H6           1.9230    -0.0040    -0.9380 ha         1 1JN       0.133000
     29 H7           3.2010    -5.0070    -4.0470 hc         1 1JN       0.049200
     30 H8           4.7210    -4.7750    -4.9620 hc         1 1JN       0.049200
     31 H9           5.0330    -2.6030    -4.1330 hc         1 1JN       0.050700
     32 H10          3.2580    -2.6560    -3.9860 hc         1 1JN       0.050700
     33 H11          3.7200    -1.0560    -1.6630 ha         1 1JN       0.121000
     34 H12          3.9450     0.4990     0.3120 h1         1 1JN       0.065200
     35 H13          3.9480     0.4930     2.0810 h1         1 1JN       0.065200
     36 H14         -2.4130     0.8820    -0.6260 h1         1 1JN       0.042700
     37 H15         -2.4120    -0.8870    -0.6170 h1         1 1JN       0.042700
     38 H16         -3.7760     0.0010     0.0770 h1         1 1JN       0.042700
     39 H17          4.3860    -1.7770     3.3000 h5         1 1JN       0.069800
     40 H18          5.3330    -5.4160     0.0190 ha         1 1JN       0.140000
     41 H19          4.6280    -6.1980    -2.6030 hc         1 1JN       0.052200
     42 H20          6.0620    -5.2610    -3.0960 hc         1 1JN       0.052200
@<TRIPOS>BOND
     1    13    14 1
     2    13    12 1
     3     3     2 1
     4    14     2 ar
     5    14     1 ar
     6     2     4 ar
     7     1     5 ar
     8     4    15 ar
     9     5    15 ar
    10    15    11 1
    11    11    22 1
    12     9    21 1
    13     9     8 1
    14    10    21 ar
    15    10     7 ar
    16    21    20 ar
    17    22     7 1
    18    22    17 1
    19     7     6 ar
    20     8    19 1
    21    17    16 2
    22    20    19 1
    23    20    18 ar
    24     6    18 ar
    25     6    16 1
    26     1    23 1
    27     3    24 1
    28     3    25 1
    29     3    26 1
    30     4    27 1
    31     5    28 1
    32     8    29 1
    33     8    30 1
    34     9    31 1
    35     9    32 1
    36    10    33 1
    37    11    34 1
    38    11    35 1
    39    12    36 1
    40    12    37 1
    41    12    38 1
    42    17    39 1
    43    18    40 1
    44    19    41 1
    45    19    42 1
@<TRIPOS>SUBSTRUCTURE
     1 1JN         1 TEMP              0 ****  ****    0 ROOT
