@<TRIPOS>MOLECULE
1JN
   42    45     1     0     0
SMALL
bcc


@<TRIPOS>ATOM
      1 C4         -0.2190   -0.6160    0.3120 ca        1 1JN     -0.199000
      2 C5         -0.0410    0.5830    2.4380 ca        1 1JN     -0.099300
      3 C6         -0.6930    1.2960    3.5580 c3        1 1JN     -0.042800
      4 C7          1.3410    0.4040    2.3970 ca        1 1JN     -0.090000
      5 C8          1.1650   -0.7750    0.2940 ca        1 1JN     -0.079000
      6 C10         4.5060   -3.8010    0.3670 ca        1 1JN      0.063400
      7 C13         4.1860   -2.4390   -0.0280 ca        1 1JN     -0.075200
      8 C15         4.9960   -4.2220   -4.3290 c3        1 1JN     -0.078400
      9 C17         4.5950   -2.8450   -3.7830 c3        1 1JN     -0.036100
     10 C20         4.1910   -2.0380   -1.3740 ca        1 1JN     -0.128000
     11 C22         3.4450   -0.4050    1.2950 c3        1 1JN      0.101600
     12 C1         -2.9920   -0.2690    0.4600 c3        1 1JN      0.111700
     13 O2         -2.1790    0.2780    1.4920 os        1 1JN     -0.324900
     14 C3         -0.8200    0.0610    1.3790 ca        1 1JN      0.130100
     15 C9          1.9500   -0.2680    1.3320 ca        1 1JN     -0.156300
     16 N11         4.4230   -3.9120    1.7720 nc        1 1JN     -0.566100
     17 C12         4.0720   -2.6930    2.2050 cd        1 1JN      0.421700
     18 C14         4.8370   -4.7580   -0.6090 ca        1 1JN     -0.057000
     19 C16         5.1470   -5.1680   -3.1300 c3        1 1JN     -0.032100
     20 C18         4.8350   -4.3440   -1.9250 ca        1 1JN     -0.108300
     21 C19         4.5170   -3.0070   -2.3010 ca        1 1JN     -0.068300
     22 N21         3.9430   -1.7420    1.1670 na        1 1JN     -0.169300
     23 H1         -0.8210   -1.0250   -0.5100 ha        1 1JN      0.141000
     24 H2         -1.4410    0.6260    4.0540 hc        1 1JN      0.048033
     25 H3          0.0520    1.6310    4.3190 hc        1 1JN      0.048033
     26 H4         -1.2430    2.1920    3.1720 hc        1 1JN      0.048033
     27 H5          1.9570    0.8020    3.2190 ha        1 1JN      0.133000
     28 H6          1.6430   -1.3100   -0.5430 ha        1 1JN      0.144000
     29 H7          4.2160   -4.6040   -5.0320 hc        1 1JN      0.044200
     30 H8          5.9580   -4.1520   -4.8930 hc        1 1JN      0.044200
     31 H9          5.3520   -2.0680   -4.0580 hc        1 1JN      0.052700
     32 H10         3.6080   -2.5210   -4.2000 hc        1 1JN      0.052700
     33 H11         3.9490   -1.0090   -1.6670 ha        1 1JN      0.136000
     34 H12         3.8850    0.0320    2.2400 h1        1 1JN      0.064700
     35 H13         3.8350    0.1920    0.4170 h1        1 1JN      0.064700
     36 H14        -2.8800   -1.3790    0.4150 h1        1 1JN      0.046033
     37 H15        -2.7400    0.1920   -0.5260 h1        1 1JN      0.046033
     38 H16        -4.0300    0.0110    0.7730 h1        1 1JN      0.046033
     39 H17         3.9140   -2.4160    3.2540 h5        1 1JN      0.067800
     40 H18         5.0850   -5.7890   -0.3210 ha        1 1JN      0.150000
     41 H19         4.4430   -6.0340   -3.2120 hc        1 1JN      0.053200
     42 H20         6.1860   -5.5780   -3.0720 hc        1 1JN      0.053200
@<TRIPOS>BOND
     1    1    5 ar  
     2    1   14 ar  
     3    1   23 1   
     4    2    3 1   
     5    2    4 ar  
     6    2   14 ar  
     7    3   24 1   
     8    3   25 1   
     9    3   26 1   
    10    4   15 ar  
    11    4   27 1   
    12    5   15 ar  
    13    5   28 1   
    14    6    7 ar  
    15    6   16 1   
    16    6   18 ar  
    17    7   10 ar  
    18    7   22 1   
    19    8    9 1   
    20    8   19 1   
    21    8   29 1   
    22    8   30 1   
    23    9   21 1   
    24    9   31 1   
    25    9   32 1   
    26   10   21 ar  
    27   10   33 1   
    28   11   15 1   
    29   11   22 1   
    30   11   34 1   
    31   11   35 1   
    32   12   13 1   
    33   12   36 1   
    34   12   37 1   
    35   12   38 1   
    36   13   14 1   
    37   16   17 2   
    38   17   22 1   
    39   17   39 1   
    40   18   20 ar  
    41   18   40 1   
    42   19   20 1   
    43   19   41 1   
    44   19   42 1   
    45   20   21 ar  
@<TRIPOS>SUBSTRUCTURE
     1 1JN         1 TEMP              0 ****  ****    0 ROOT
