@<TRIPOS>MOLECULE
1JO
   58    58     1     0     0
SMALL
bcc


@<TRIPOS>ATOM
      1 OXT          0.0000     0.0000     0.0000 o          1 1JO      -0.824300
      2 C            1.2080     0.0000     0.0000 c          1 1JO       0.962600
      3 O            1.8800     0.0000     1.1620 o          1 1JO      -0.824300
      4 CA           1.9620    -0.0010    -1.3050 c3         1 1JO      -0.205500
      5 N            1.0790     0.4730    -2.3800 nz         1 1JO       0.077400
      6 CB           2.4330    -1.4210    -1.6220 c3         1 1JO      -0.007400
      7 CG           3.3030    -1.4020    -2.8800 c3         1 1JO      -0.118400
      8 CD           3.7670    -2.8010    -3.1910 c          1 1JO       0.580100
      9 OE1          3.4350    -3.7230    -2.4770 o          1 1JO      -0.627100
     10 NE2          4.5510    -3.0280    -4.2640 ns         1 1JO      -0.146900
     11 CBD          5.0030    -4.3880    -4.5660 c3         1 1JO      -0.038300
     12 CBA          6.2480    -4.6930    -3.7730 c          1 1JO       0.529100
     13 OAE          6.7120    -3.8560    -3.0290 o          1 1JO      -0.681100
     14 NAU          6.8450    -5.8950    -3.8910 ns         1 1JO      -0.130900
     15 CAQ          8.0550    -6.1910    -3.1210 c3         1 1JO      -0.077000
     16 CAX          8.5190    -7.5910    -3.4320 c          1 1JO       0.972600
     17 OAF          9.6180    -8.0810    -2.8360 o          1 1JO      -0.888800
     18 OAB          7.9030    -8.2710    -4.2180 o          1 1JO      -0.888800
     19 CAT          5.3100    -4.5030    -6.0610 c3         1 1JO       0.078700
     20 SAW          3.8130    -4.1360    -7.0160 ss         1 1JO      -0.431200
     21 CAO          4.3680    -4.3200    -8.7330 c3         1 1JO       0.085700
     22 CAM          3.2000    -4.0390    -9.6810 c3         1 1JO      -0.009400
     23 CAN          3.6690    -4.1940   -11.1290 c3         1 1JO      -0.027400
     24 CAR          2.5000    -3.9130   -12.0760 c3         1 1JO       0.030900
     25 CBB          2.9620    -4.0660   -13.5020 ca         1 1JO      -0.088300
     26 CAK          3.4790    -2.9790   -14.1820 ca         1 1JO      -0.097500
     27 CAI          3.9070    -3.1210   -15.4880 ca         1 1JO      -0.099000
     28 CAH          3.8180    -4.3490   -16.1150 ca         1 1JO      -0.107000
     29 CAJ          3.3020    -5.4360   -15.4350 ca         1 1JO      -0.099000
     30 CAL          2.8720    -5.2950   -14.1290 ca         1 1JO      -0.097500
     31 H2           2.8200     0.6560    -1.2270 hx         1 1JO       0.084700
     32 H3           0.5030    -0.2820    -2.6960 hn         1 1JO       0.208800
     33 H4           1.6330     0.8120    -3.1410 hn         1 1JO       0.208800
     34 H6           3.0110    -1.8040    -0.7890 hc         1 1JO       0.071200
     35 H7           1.5730    -2.0580    -1.7870 hc         1 1JO       0.071200
     36 H8           4.1630    -0.7650    -2.7150 hc         1 1JO       0.012200
     37 H9           2.7250    -1.0200    -3.7130 hc         1 1JO       0.012200
     38 H10          4.8540    -2.2620    -4.8340 hn         1 1JO       0.169500
     39 H11          4.2250    -5.0940    -4.3020 h1         1 1JO       0.079700
     40 H12          6.4420    -6.5980    -4.4790 hn         1 1JO       0.194500
     41 H13          7.8380    -6.1100    -2.0620 h1         1 1JO       0.028200
     42 H14          8.8330    -5.4860    -3.3850 h1         1 1JO       0.028200
     43 H16          5.6440    -5.5090    -6.2860 h1         1 1JO       0.052200
     44 H17          6.0880    -3.7970    -6.3250 h1         1 1JO       0.052200
     45 H18          5.1700    -3.6190    -8.9300 h1         1 1JO       0.037700
     46 H19          4.7260    -5.3310    -8.8900 h1         1 1JO       0.037700
     47 H20          2.8430    -3.0280    -9.5240 hc         1 1JO       0.025200
     48 H21          2.3980    -4.7400    -9.4840 hc         1 1JO       0.025200
     49 H22          4.0260    -5.2050   -11.2860 hc         1 1JO       0.020200
     50 H23          4.4710    -3.4930   -11.3260 hc         1 1JO       0.020200
     51 H24          1.6990    -4.6140   -11.8780 hc         1 1JO       0.017700
     52 H25          2.1430    -2.9030   -11.9180 hc         1 1JO       0.017700
     53 H26          3.5500    -2.0160   -13.6900 ha         1 1JO       0.106000
     54 H27          4.3120    -2.2700   -16.0210 ha         1 1JO       0.100500
     55 H28          4.1540    -4.4600   -17.1390 ha         1 1JO       0.100000
     56 H29          3.2320    -6.3990   -15.9270 ha         1 1JO       0.100500
     57 H30          2.4680    -6.1470   -13.5960 ha         1 1JO       0.106000
     58 HN3          0.5070     1.2200    -2.0370 hn         1 1JO       0.208800
@<TRIPOS>BOND
     1     1     2 1   
     2     2     3 1   
     3     2     4 1   
     4     4     5 1   
     5     4     6 1   
     6     4    31 1   
     7     5    32 1   
     8     5    33 1   
     9     5    58 1   
    10     6     7 1   
    11     6    34 1   
    12     6    35 1   
    13     7     8 1   
    14     7    36 1   
    15     7    37 1   
    16     8     9 2   
    17     8    10 1   
    18    10    11 1   
    19    10    38 1   
    20    11    12 1   
    21    11    19 1   
    22    11    39 1   
    23    12    13 2   
    24    12    14 1   
    25    14    15 1   
    26    14    40 1   
    27    15    16 1   
    28    15    41 1   
    29    15    42 1   
    30    16    17 1   
    31    16    18 1   
    32    19    20 1   
    33    19    43 1   
    34    19    44 1   
    35    20    21 1   
    36    21    22 1   
    37    21    45 1   
    38    21    46 1   
    39    22    23 1   
    40    22    47 1   
    41    22    48 1   
    42    23    24 1   
    43    23    49 1   
    44    23    50 1   
    45    24    25 1   
    46    24    51 1   
    47    24    52 1   
    48    25    26 ar  
    49    25    30 ar  
    50    26    27 ar  
    51    26    53 1   
    52    27    28 ar  
    53    27    54 1   
    54    28    29 ar  
    55    28    55 1   
    56    29    30 ar  
    57    29    56 1   
    58    30    57 1   
@<TRIPOS>SUBSTRUCTURE
     1 1JO         1 TEMP              0 ****  ****    0 ROOT
