@<TRIPOS>MOLECULE
molecule
   58    58     1     0     0
SMALL
bcc


@<TRIPOS>ATOM
      1 OXT          0.0000     0.0000     0.0000 o          1 1JO      -0.780300
      2 C            1.2080     0.0000     0.0000 c          1 1JO       0.873600
      3 O            1.8800     0.0000     1.1620 o          1 1JO      -0.780300
      4 CA           1.9620    -0.0010    -1.3050 c3         1 1JO      -0.022500
      5 N            1.0790     0.4730    -2.3800 nz         1 1JO      -0.792600
      6 CB           2.4330    -1.4210    -1.6220 c3         1 1JO      -0.073400
      7 CG           3.3030    -1.4020    -2.8800 c3         1 1JO      -0.177400
      8 CD           3.7670    -2.8010    -3.1910 c          1 1JO       0.670100
      9 OE1          3.4350    -3.7230    -2.4770 o          1 1JO      -0.586100
     10 NE2          4.5510    -3.0280    -4.2640 ns         1 1JO      -0.554900
     11 CBD          5.0030    -4.3880    -4.5660 c3         1 1JO       0.053700
     12 CBA          6.2480    -4.6930    -3.7730 c          1 1JO       0.629100
     13 OAE          6.7120    -3.8560    -3.0290 o          1 1JO      -0.628100
     14 NAU          6.8450    -5.8950    -3.8910 ns         1 1JO      -0.542900
     15 CAQ          8.0550    -6.1910    -3.1210 c3         1 1JO      -0.005000
     16 CAX          8.5190    -7.5910    -3.4320 c          1 1JO       0.883600
     17 OAF          9.6180    -8.0810    -2.8360 o          1 1JO      -0.843300
     18 OAB          7.9030    -8.2710    -4.2180 o          1 1JO      -0.843300
     19 CAT          5.3100    -4.5030    -6.0610 c3         1 1JO       0.013700
     20 SAW          3.8130    -4.1360    -7.0160 ss         1 1JO      -0.381200
     21 CAO          4.3680    -4.3200    -8.7330 c3         1 1JO       0.018700
     22 CAM          3.2000    -4.0390    -9.6810 c3         1 1JO      -0.068400
     23 CAN          3.6690    -4.1940   -11.1290 c3         1 1JO      -0.076400
     24 CAR          2.5000    -3.9130   -12.0760 c3         1 1JO      -0.036100
     25 CBB          2.9620    -4.0660   -13.5020 ca         1 1JO      -0.080300
     26 CAK          3.4790    -2.9790   -14.1820 ca         1 1JO      -0.124500
     27 CAI          3.9070    -3.1210   -15.4880 ca         1 1JO      -0.126500
     28 CAH          3.8180    -4.3490   -16.1150 ca         1 1JO      -0.134000
     29 CAJ          3.3020    -5.4360   -15.4350 ca         1 1JO      -0.126500
     30 CAL          2.8720    -5.2950   -14.1290 ca         1 1JO      -0.124500
     31 H2           2.8200     0.6560    -1.2270 hx         1 1JO       0.101700
     32 H3           0.5030    -0.2820    -2.6960 hn         1 1JO       0.436133
     33 H4           1.6330     0.8120    -3.1410 hn         1 1JO       0.436133
     34 H6           3.0110    -1.8040    -0.7890 hc         1 1JO       0.103700
     35 H7           1.5730    -2.0580    -1.7870 hc         1 1JO       0.103700
     36 H8           4.1630    -0.7650    -2.7150 hc         1 1JO       0.043200
     37 H9           2.7250    -1.0200    -3.7130 hc         1 1JO       0.043200
     38 H10          4.8540    -2.2620    -4.8340 hn         1 1JO       0.314500
     39 H11          4.2250    -5.0940    -4.3020 h1         1 1JO       0.105700
     40 H12          6.4420    -6.5980    -4.4790 hn         1 1JO       0.331500
     41 H13          7.8380    -6.1100    -2.0620 h1         1 1JO       0.049700
     42 H14          8.8330    -5.4860    -3.3850 h1         1 1JO       0.049700
     43 H16          5.6440    -5.5090    -6.2860 h1         1 1JO       0.077700
     44 H17          6.0880    -3.7970    -6.3250 h1         1 1JO       0.077700
     45 H18          5.1700    -3.6190    -8.9300 h1         1 1JO       0.060200
     46 H19          4.7260    -5.3310    -8.8900 h1         1 1JO       0.060200
     47 H20          2.8430    -3.0280    -9.5240 hc         1 1JO       0.051200
     48 H21          2.3980    -4.7400    -9.4840 hc         1 1JO       0.051200
     49 H22          4.0260    -5.2050   -11.2860 hc         1 1JO       0.048700
     50 H23          4.4710    -3.4930   -11.3260 hc         1 1JO       0.048700
     51 H24          1.6990    -4.6140   -11.8780 hc         1 1JO       0.047700
     52 H25          2.1430    -2.9030   -11.9180 hc         1 1JO       0.047700
     53 H26          3.5500    -2.0160   -13.6900 ha         1 1JO       0.130000
     54 H27          4.3120    -2.2700   -16.0210 ha         1 1JO       0.127000
     55 H28          4.1540    -4.4600   -17.1390 ha         1 1JO       0.126000
     56 H29          3.2320    -6.3990   -15.9270 ha         1 1JO       0.127000
     57 H30          2.4680    -6.1470   -13.5960 ha         1 1JO       0.130000
     58 HN3          0.5070     1.2200    -2.0370 hn         1 1JO       0.436133
@<TRIPOS>BOND
     1    27    28 ar
     2    27    26 ar
     3    28    29 ar
     4    26    25 ar
     5    29    30 ar
     6    25    30 ar
     7    25    24 1
     8    24    23 1
     9     6     7 1
    10     6     4 1
    11     7     8 1
    12     5     4 1
    13    13    12 2
    14     3     2 1
    15    12    11 1
    16    12    14 1
    17     4     2 1
    18    17    16 1
    19    11    19 1
    20    11    10 1
    21    15    14 1
    22    15    16 1
    23    23    22 1
    24     2     1 1
    25     8    10 1
    26     8     9 2
    27    19    20 1
    28    16    18 1
    29    20    21 1
    30    22    21 1
    31     4    31 1
    32     5    32 1
    33     5    33 1
    34     6    34 1
    35     6    35 1
    36     7    36 1
    37     7    37 1
    38    10    38 1
    39    11    39 1
    40    14    40 1
    41    15    41 1
    42    15    42 1
    43    19    43 1
    44    19    44 1
    45    21    45 1
    46    21    46 1
    47    22    47 1
    48    22    48 1
    49    23    49 1
    50    23    50 1
    51    24    51 1
    52    24    52 1
    53    26    53 1
    54    27    54 1
    55    28    55 1
    56    29    56 1
    57    30    57 1
    58    58     5 1
@<TRIPOS>SUBSTRUCTURE
     1 1JO         1 TEMP              0 ****  ****    0 ROOT
