@<TRIPOS>MOLECULE
1JO
   60    60     1     0     0
SMALL
bcc


@<TRIPOS>ATOM
      1 OXT         -0.5160     1.2560    -1.9380 o          1 1JO      -0.766300
      2 C            0.1240     0.7980    -0.9600 c          1 1JO       0.936600
      3 O           -0.0560     1.0050     0.2580 o          1 1JO      -0.766300
      4 CA           1.3510    -0.1620    -1.3200 c3         1 1JO      -0.070500
      5 N            1.3700    -1.2530    -0.2970 nz         1 1JO      -0.821600
      6 CB           2.6220     0.6830    -1.3060 c3         1 1JO      -0.092400
      7 CG           3.1390     1.0960    -2.6710 c3         1 1JO      -0.157400
      8 CD           2.1170     1.2490    -3.7610 c          1 1JO       0.554100
      9 OE1          1.9560     0.4490    -4.6760 o          1 1JO      -0.429100
     10 NE2          1.2110     2.4370    -3.8100 ny         1 1JO      -0.701800
     11 CBD          1.7860     3.7400    -3.3630 c3         1 1JO       0.051500
     12 CBA          1.8640     3.8950    -1.8230 c          1 1JO       0.640100
     13 OAE          2.9900     4.0840    -1.3260 o          1 1JO      -0.579100
     14 NAU          0.7160     3.7640    -1.0930 ns         1 1JO      -0.518900
     15 CAQ          0.6380     4.1350     0.2940 c3         1 1JO      -0.023000
     16 CAX         -0.1190     5.4330     0.5220 c          1 1JO       0.605100
     17 OAF         -0.5870     6.1720    -0.3420 o          1 1JO      -0.486000
     18 OAB         -0.3180     5.8500     1.8000 oh         1 1JO      -0.549100
     19 CAT          1.0040     4.9200    -3.9460 c3         1 1JO      -0.077300
     20 SAW          0.6660     4.7140    -5.6590 ss         1 1JO      -0.273200
     21 CAO          2.0860     5.4110    -6.4700 c3         1 1JO      -0.006300
     22 CAM          1.8170     5.3140    -7.9510 c3         1 1JO      -0.077400
     23 CAN          2.9990     5.7980    -8.7680 c3         1 1JO      -0.075400
     24 CAR          3.1230     7.3100    -8.7650 c3         1 1JO      -0.035100
     25 CBB          4.2620     7.7640    -9.6090 ca         1 1JO      -0.092300
     26 CAK          5.4210     8.2810    -9.0210 ca         1 1JO      -0.127000
     27 CAI          6.4800     8.7150    -9.8180 ca         1 1JO      -0.124000
     28 CAH          6.3890     8.6370   -11.2070 ca         1 1JO      -0.123000
     29 CAJ          5.2340     8.1240   -11.7990 ca         1 1JO      -0.124000
     30 CAL          4.1750     7.6900   -11.0050 ca         1 1JO      -0.127000
     31 H2           1.1820    -0.6360    -2.3260 hx         1 1JO       0.102700
     32 H3           2.2830    -1.7020    -0.2340 hn         1 1JO       0.461133
     33 H4           1.1210    -0.8230     0.6140 hn         1 1JO       0.461133
     34 H6           2.4280     1.6080    -0.6890 hc         1 1JO       0.088700
     35 H7           3.4720     0.1470    -0.7970 hc         1 1JO       0.088700
     36 H8           3.7120     2.0610    -2.5490 hc         1 1JO       0.117700
     37 H9           3.8650     0.3180    -3.0470 hc         1 1JO       0.117700
     38 H10          0.3590     2.1980    -3.2460 hn         1 1JO       0.500800
     39 H11          2.8530     3.7890    -3.7440 hx         1 1JO       0.121700
     40 H12          0.0560     5.2120     2.4260 ho         1 1JO       0.433000
     41 H13          1.6770     4.2480     0.7210 h1         1 1JO       0.115700
     42 H14          0.1010     3.2970     0.8390 h1         1 1JO       0.115700
     43 H16          0.0050     5.0380    -3.4460 h1         1 1JO       0.128700
     44 H17          1.5870     5.8530    -3.7350 h1         1 1JO       0.128700
     45 H18          2.2170     6.4770    -6.1600 h1         1 1JO       0.071700
     46 H19          3.0110     4.8520    -6.1930 h1         1 1JO       0.071700
     47 H20          1.6010     4.2460    -8.2220 hc         1 1JO       0.062700
     48 H21          0.9060     5.9190    -8.2110 hc         1 1JO       0.062700
     49 H22          3.9450     5.3400    -8.3780 hc         1 1JO       0.054200
     50 H23          2.8700     5.4450    -9.8260 hc         1 1JO       0.054200
     51 H24          2.1700     7.7630    -9.1540 hc         1 1JO       0.047700
     52 H25          3.2570     7.6750    -7.7120 hc         1 1JO       0.047700
     53 H26          5.4970     8.3520    -7.9260 ha         1 1JO       0.128000
     54 H27          7.3870     9.1240    -9.3480 ha         1 1JO       0.137000
     55 H28          7.2230     8.9820   -11.8350 ha         1 1JO       0.139000
     56 H29          5.1570     8.0660   -12.8950 ha         1 1JO       0.137000
     57 H30          3.2630     7.2920   -11.4740 ha         1 1JO       0.128000
     58 HN3          0.6550    -1.9450    -0.5320 hn         1 1JO       0.461133
     59 HE23         0.8930     2.5740    -4.8040 hn         1 1JO       0.500800
     60 HAU2        -0.1610     3.6140    -1.5480 hn         1 1JO       0.349500
@<TRIPOS>BOND
     1     1     2 1   
     2     2     3 1   
     3     2     4 1   
     4     4     5 1   
     5     4     6 1   
     6     4    31 1   
     7     5    32 1   
     8     5    33 1   
     9     5    58 1   
    10     6     7 1   
    11     6    34 1   
    12     6    35 1   
    13     7     8 1   
    14     7    36 1   
    15     7    37 1   
    16     8     9 2   
    17     8    10 1   
    18    10    11 1   
    19    10    38 1   
    20    10    59 1   
    21    11    12 1   
    22    11    19 1   
    23    11    39 1   
    24    12    13 2   
    25    12    14 1   
    26    14    15 1   
    27    14    60 1   
    28    15    16 1   
    29    15    41 1   
    30    15    42 1   
    31    16    17 2   
    32    16    18 1   
    33    18    40 1   
    34    19    20 1   
    35    19    43 1   
    36    19    44 1   
    37    20    21 1   
    38    21    22 1   
    39    21    45 1   
    40    21    46 1   
    41    22    23 1   
    42    22    47 1   
    43    22    48 1   
    44    23    24 1   
    45    23    49 1   
    46    23    50 1   
    47    24    25 1   
    48    24    51 1   
    49    24    52 1   
    50    25    26 ar  
    51    25    30 ar  
    52    26    27 ar  
    53    26    53 1   
    54    27    28 ar  
    55    27    54 1   
    56    28    29 ar  
    57    28    55 1   
    58    29    30 ar  
    59    29    56 1   
    60    30    57 1   
@<TRIPOS>SUBSTRUCTURE
     1 1JO         1 TEMP              0 ****  ****    0 ROOT
