@<TRIPOS>MOLECULE
1JP
   57    57     1     0     0
SMALL
bcc


@<TRIPOS>ATOM
      1 O            0.0000     0.0000     0.0000 o          1 1JP      -0.826300
      2 C            1.2080     0.0000     0.0000 c          1 1JP       0.963600
      3 OXT          1.8790     0.0000     1.1630 o          1 1JP      -0.826300
      4 CA           1.9630    -0.0060    -1.3040 c3         1 1JP      -0.206500
      5 N            1.0820     0.4630    -2.3810 nz         1 1JP       0.079400
      6 CB           2.4350    -1.4290    -1.6140 c3         1 1JP      -0.008400
      7 CG           3.3050    -1.4150    -2.8720 c3         1 1JP      -0.115400
      8 CD           3.7700    -2.8150    -3.1780 c          1 1JP       0.564100
      9 OE1          3.4370    -3.7340    -2.4580 o          1 1JP      -0.569100
     10 NE2          4.5550    -3.0470    -4.2480 ns         1 1JP      -0.171900
     11 CBE          5.0060    -4.4090    -4.5450 c3         1 1JP      -0.028300
     12 CBA          6.2500    -4.7100    -3.7490 c          1 1JP       0.710500
     13 OAE          6.7130    -3.8690    -3.0070 o          1 1JP      -0.559100
     14 NAU          6.8480    -5.9120    -3.8610 ne         1 1JP      -0.666100
     15 CAO          7.0950    -6.6190    -2.7950 cf         1 1JP       0.513200
     16 CAX          6.5640    -6.1860    -1.4780 c          1 1JP       0.814300
     17 OAF          6.9220    -6.8440    -0.3590 o          1 1JP      -0.842800
     18 OAB          5.8070    -5.2410    -1.4100 o          1 1JP      -0.842800
     19 CAT          5.3150    -4.5300    -6.0380 c3         1 1JP       0.096700
     20 S1           3.8170    -4.1680    -6.9960 ss         1 1JP      -0.435200
     21 CAS          4.3740    -4.3590    -8.7120 c3         1 1JP       0.052700
     22 CBD          3.2060    -4.0820    -9.6610 c3         1 1JP       0.212100
     23 OAH          2.1480    -5.0070    -9.3970 oh         1 1JP      -0.576800
     24 CAR          3.6760    -4.2440   -11.1080 c3         1 1JP      -0.039400
     25 CAP          2.5440    -3.8470   -12.0590 c3         1 1JP       0.028900
     26 CBB          3.0070    -4.0060   -13.4840 ca         1 1JP      -0.072300
     27 CAL          3.6200    -2.9510   -14.1340 ca         1 1JP      -0.098000
     28 CAJ          4.0440    -3.0970   -15.4410 ca         1 1JP      -0.107000
     29 CAI          3.8560    -4.2990   -16.0980 ca         1 1JP      -0.109000
     30 CAK          3.2440    -5.3540   -15.4480 ca         1 1JP      -0.107000
     31 CAM          2.8240    -5.2090   -14.1400 ca         1 1JP      -0.098000
     32 H2           2.8210     0.6500    -1.2280 hx         1 1JP       0.083700
     33 H3           0.4290    -0.2590    -2.6160 hn         1 1JP       0.206467
     34 H4           1.6310     0.6900    -3.1870 hn         1 1JP       0.206467
     35 H6           3.0120    -1.8080    -0.7800 hc         1 1JP       0.076200
     36 H7           1.5740    -2.0670    -1.7780 hc         1 1JP       0.076200
     37 H8           4.1650    -0.7760    -2.7090 hc         1 1JP       0.006700
     38 H9           2.7270    -1.0360    -3.7070 hc         1 1JP       0.006700
     39 H10          4.8390    -2.2870    -4.8340 hn         1 1JP       0.161500
     40 H11          4.2270    -5.1130    -4.2790 h1         1 1JP       0.087700
     41 H12          7.5760    -7.5850    -2.8890 h4         1 1JP      -0.043200
     42 H14          6.0930    -3.8250    -6.3040 h1         1 1JP       0.048200
     43 H15          5.6490    -5.5370    -6.2570 h1         1 1JP       0.048200
     44 H16          4.7320    -5.3700    -8.8640 h1         1 1JP       0.043200
     45 H17          5.1760    -3.6580    -8.9110 h1         1 1JP       0.043200
     46 H18          2.8490    -3.0710    -9.5080 h1         1 1JP       0.005700
     47 H19          1.4540    -4.5660    -8.9360 ho         1 1JP       0.396000
     48 H20          3.9500    -5.2770   -11.2850 hc         1 1JP       0.027700
     49 H21          4.5350    -3.6070   -11.2830 hc         1 1JP       0.027700
     50 H22          1.6860    -4.4840   -11.8850 hc         1 1JP       0.021700
     51 H23          2.2690    -2.8140   -11.8810 hc         1 1JP       0.021700
     52 H24          3.7300    -1.9970   -13.6330 ha         1 1JP       0.107500
     53 H25          4.5370    -2.2750   -15.9460 ha         1 1JP       0.100500
     54 H26          4.1950    -4.4160   -17.1200 ha         1 1JP       0.099000
     55 H27          3.1020    -6.2980   -15.9610 ha         1 1JP       0.100500
     56 H28          2.2900    -6.0940   -13.8160 ha         1 1JP       0.107500
     57 HN3          0.5930     1.2820    -2.0800 hn         1 1JP       0.206467
@<TRIPOS>BOND
     1     1     2 1   
     2     2     3 1   
     3     2     4 1   
     4     4     5 1   
     5     4     6 1   
     6     4    32 1   
     7     5    33 1   
     8     5    34 1   
     9     5    57 1   
    10     6     7 1   
    11     6    35 1   
    12     6    36 1   
    13     7     8 1   
    14     7    37 1   
    15     7    38 1   
    16     8     9 2   
    17     8    10 1   
    18    10    11 1   
    19    10    39 1   
    20    11    12 1   
    21    11    19 1   
    22    11    40 1   
    23    12    13 2   
    24    12    14 1   
    25    14    15 2   
    26    15    16 1   
    27    15    41 1   
    28    16    17 1   
    29    16    18 1   
    30    19    20 1   
    31    19    42 1   
    32    19    43 1   
    33    20    21 1   
    34    21    22 1   
    35    21    44 1   
    36    21    45 1   
    37    22    23 1   
    38    22    24 1   
    39    22    46 1   
    40    23    47 1   
    41    24    25 1   
    42    24    48 1   
    43    24    49 1   
    44    25    26 1   
    45    25    50 1   
    46    25    51 1   
    47    26    27 ar  
    48    26    31 ar  
    49    27    28 ar  
    50    27    52 1   
    51    28    29 ar  
    52    28    53 1   
    53    29    30 ar  
    54    29    54 1   
    55    30    31 ar  
    56    30    55 1   
    57    31    56 1   
@<TRIPOS>SUBSTRUCTURE
     1 1JP         1 TEMP              0 ****  ****    0 ROOT
