@<TRIPOS>MOLECULE
1JP
   58    58     1     0     0
SMALL
bcc


@<TRIPOS>ATOM
      1 O            6.4430     0.5640     0.6480 o          1 1JP      -0.798300
      2 C            5.3500     0.1150     1.0510 c          1 1JP       0.899600
      3 OXT          5.0590    -0.1250     2.2630 o          1 1JP      -0.798300
      4 CA           4.2720    -0.2460    -0.0260 c3         1 1JP      -0.018500
      5 N            2.9190     0.1070     0.4940 nz         1 1JP      -0.851600
      6 CB           4.3780    -1.7140    -0.4600 c3         1 1JP      -0.090400
      7 CG           5.4560    -2.5350     0.2220 c3         1 1JP      -0.156400
      8 CD           4.9270    -3.4190     1.3260 c          1 1JP       0.556100
      9 OE1          4.6650    -4.6100     1.1980 o          1 1JP      -0.456100
     10 NE2          4.7590    -2.7880     2.6680 ny         1 1JP      -0.678800
     11 CBE          4.3550    -3.7200     3.7640 c3         1 1JP       0.049500
     12 CBA          2.8110    -3.7570     3.9710 c          1 1JP       0.707500
     13 OAE          2.3440    -3.3350     5.0350 o          1 1JP      -0.504100
     14 NAU          2.0500    -4.4810     3.0310 ne         1 1JP      -0.633100
     15 CAO          1.4740    -3.9750     2.0080 cf         1 1JP       0.468200
     16 CAX          1.5950    -2.5360     1.5500 c          1 1JP       0.762300
     17 OAF          1.2570    -2.2020     0.3810 o          1 1JP      -0.828800
     18 OAB          2.1390    -1.7040     2.3480 o          1 1JP      -0.828800
     19 CAT          5.0070    -3.3370     5.0930 c3         1 1JP      -0.055300
     20 S1           6.7630    -3.3970     5.0040 ss         1 1JP      -0.277200
     21 CAS          7.2580    -1.6910     5.0530 c3         1 1JP      -0.045300
     22 CBD          8.1550    -1.2490     3.9030 c3         1 1JP       0.161100
     23 OAH          7.4900    -1.4550     2.6640 oh         1 1JP      -0.649800
     24 CAR          9.5160    -1.9380     3.8770 c3         1 1JP      -0.084400
     25 CAP          9.4780    -3.3600     3.3560 c3         1 1JP      -0.034100
     26 CBB         10.8460    -3.9340     3.2350 ca         1 1JP      -0.080300
     27 CAL         11.7010    -3.5030     2.2130 ca         1 1JP      -0.128000
     28 CAJ         12.9790    -4.0460     2.0890 ca         1 1JP      -0.128500
     29 CAI         13.4140    -5.0240     2.9830 ca         1 1JP      -0.132000
     30 CAK         12.5660    -5.4580     4.0020 ca         1 1JP      -0.128500
     31 CAM         11.2880    -4.9170     4.1280 ca         1 1JP      -0.128000
     32 H2           4.4650     0.4050    -0.9290 hx         1 1JP       0.095700
     33 H3           2.7320     1.0910     0.3330 hn         1 1JP       0.468800
     34 H4           2.9050    -0.0830     1.5220 hn         1 1JP       0.468800
     35 H6           3.3870    -2.2440    -0.3590 hc         1 1JP       0.086700
     36 H7           4.6210    -1.7080    -1.5590 hc         1 1JP       0.086700
     37 H8           6.3030    -1.8970     0.6060 hc         1 1JP       0.117700
     38 H9           5.9000    -3.2390    -0.5390 hc         1 1JP       0.117700
     39 H10          5.6760    -2.3430     2.9190 hn         1 1JP       0.514300
     40 H11          4.6960    -4.7640     3.4820 hx         1 1JP       0.129700
     41 H12          0.8700    -4.6480     1.3650 h4         1 1JP       0.045800
     42 H14          4.6220    -2.3480     5.4470 h1         1 1JP       0.114700
     43 H15          4.6840    -4.1000     5.8500 h1         1 1JP       0.114700
     44 H16          7.8170    -1.5460     6.0110 h1         1 1JP       0.084200
     45 H17          6.3530    -1.0330     5.0700 h1         1 1JP       0.084200
     46 H18          8.3410    -0.1430     4.0560 h1         1 1JP       0.054700
     47 H19          7.2620    -0.5770     2.3130 ho         1 1JP       0.461000
     48 H20         10.1940    -1.3330     3.2160 hc         1 1JP       0.053700
     49 H21          9.9440    -1.9200     4.9120 hc         1 1JP       0.053700
     50 H22          8.9790    -3.3660     2.3490 hc         1 1JP       0.059200
     51 H23          8.8530    -3.9980     4.0420 hc         1 1JP       0.059200
     52 H24         11.3580    -2.7330     1.5060 ha         1 1JP       0.132500
     53 H25         13.6440    -3.7020     1.2840 ha         1 1JP       0.131000
     54 H26         14.4220    -5.4520     2.8840 ha         1 1JP       0.131000
     55 H27         12.9060    -6.2300     4.7080 ha         1 1JP       0.131000
     56 H28         10.6230    -5.2640     4.9330 ha         1 1JP       0.132500
     57 HN3          2.1760    -0.4810     0.0720 hn         1 1JP       0.468800
     58 HE23         4.0720    -1.9950     2.5880 hn         1 1JP       0.514300
@<TRIPOS>BOND
     1     1     2 1   
     2     2     3 1   
     3     2     4 1   
     4     4     5 1   
     5     4     6 1   
     6     4    32 1   
     7     5    33 1   
     8     5    34 1   
     9     5    57 1   
    10     6     7 1   
    11     6    35 1   
    12     6    36 1   
    13     7     8 1   
    14     7    37 1   
    15     7    38 1   
    16     8     9 2   
    17     8    10 1   
    18    10    11 1   
    19    10    39 1   
    20    10    58 1   
    21    11    12 1   
    22    11    19 1   
    23    11    40 1   
    24    12    13 2   
    25    12    14 1   
    26    14    15 2   
    27    15    16 1   
    28    15    41 1   
    29    16    17 1   
    30    16    18 1   
    31    19    20 1   
    32    19    42 1   
    33    19    43 1   
    34    20    21 1   
    35    21    22 1   
    36    21    44 1   
    37    21    45 1   
    38    22    23 1   
    39    22    24 1   
    40    22    46 1   
    41    23    47 1   
    42    24    25 1   
    43    24    48 1   
    44    24    49 1   
    45    25    26 1   
    46    25    50 1   
    47    25    51 1   
    48    26    27 ar  
    49    26    31 ar  
    50    27    28 ar  
    51    27    52 1   
    52    28    29 ar  
    53    28    53 1   
    54    29    30 ar  
    55    29    54 1   
    56    30    31 ar  
    57    30    55 1   
    58    31    56 1   
@<TRIPOS>SUBSTRUCTURE
     1 1JP         1 TEMP              0 ****  ****    0 ROOT
