@<TRIPOS>MOLECULE
molecule
   57    57     1     0     0
SMALL
bcc


@<TRIPOS>ATOM
      1 O            0.0000     0.0000     0.0000 o          1 1JP      -0.782300
      2 C            1.2080     0.0000     0.0000 c          1 1JP       0.874600
      3 OXT          1.8790     0.0000     1.1630 o          1 1JP      -0.782300
      4 CA           1.9630    -0.0060    -1.3040 c3         1 1JP      -0.024500
      5 N            1.0820     0.4630    -2.3810 nz         1 1JP      -0.791600
      6 CB           2.4350    -1.4290    -1.6140 c3         1 1JP      -0.072400
      7 CG           3.3050    -1.4150    -2.8720 c3         1 1JP      -0.176400
      8 CD           3.7700    -2.8150    -3.1780 c          1 1JP       0.659100
      9 OE1          3.4370    -3.7340    -2.4580 o          1 1JP      -0.545100
     10 NE2          4.5550    -3.0470    -4.2480 ns         1 1JP      -0.568900
     11 CBE          5.0060    -4.4090    -4.5450 c3         1 1JP       0.085700
     12 CBA          6.2500    -4.7100    -3.7490 c          1 1JP       0.652500
     13 OAE          6.7130    -3.8690    -3.0070 o          1 1JP      -0.561100
     14 NAU          6.8480    -5.9120    -3.8610 ne         1 1JP      -0.705100
     15 CAO          7.0950    -6.6190    -2.7950 cf         1 1JP       0.230200
     16 CAX          6.5640    -6.1860    -1.4780 c          1 1JP       0.794300
     17 OAF          6.9220    -6.8440    -0.3590 o          1 1JP      -0.721800
     18 OAB          5.8070    -5.2410    -1.4100 o          1 1JP      -0.721800
     19 CAT          5.3150    -4.5300    -6.0380 c3         1 1JP       0.027700
     20 S1           3.8170    -4.1680    -6.9960 ss         1 1JP      -0.385200
     21 CAS          4.3740    -4.3590    -8.7120 c3         1 1JP      -0.004300
     22 CBD          3.2060    -4.0820    -9.6610 c3         1 1JP       0.163100
     23 OAH          2.1480    -5.0070    -9.3970 oh         1 1JP      -0.594800
     24 CAR          3.6760    -4.2440   -11.1080 c3         1 1JP      -0.079400
     25 CAP          2.5440    -3.8470   -12.0590 c3         1 1JP      -0.036100
     26 CBB          3.0070    -4.0060   -13.4840 ca         1 1JP      -0.065300
     27 CAL          3.6200    -2.9510   -14.1340 ca         1 1JP      -0.125000
     28 CAJ          4.0440    -3.0970   -15.4410 ca         1 1JP      -0.134000
     29 CAI          3.8560    -4.2990   -16.0980 ca         1 1JP      -0.136000
     30 CAK          3.2440    -5.3540   -15.4480 ca         1 1JP      -0.134000
     31 CAM          2.8240    -5.2090   -14.1400 ca         1 1JP      -0.125000
     32 H2           2.8210     0.6500    -1.2280 hx         1 1JP       0.099700
     33 H3           0.4310    -0.2600    -2.6190 hn         1 1JP       0.434800
     34 H4           0.5820     1.2740    -2.0740 hn         1 1JP       0.434800
     35 H6           3.0120    -1.8080    -0.7800 hc         1 1JP       0.107700
     36 H7           1.5740    -2.0670    -1.7780 hc         1 1JP       0.107700
     37 H8           2.7270    -1.0360    -3.7070 hc         1 1JP       0.037200
     38 H9           4.1650    -0.7760    -2.7090 hc         1 1JP       0.037200
     39 H10          4.8390    -2.2870    -4.8340 hn         1 1JP       0.304500
     40 H11          4.2270    -5.1130    -4.2790 h1         1 1JP       0.118700
     41 H12          7.6260    -5.8900    -2.1950 h4         1 1JP       0.077800
     42 H14          5.6490    -5.5370    -6.2570 h1         1 1JP       0.078700
     43 H15          6.0930    -3.8250    -6.3040 h1         1 1JP       0.078700
     44 H16          5.1760    -3.6580    -8.9110 h1         1 1JP       0.066200
     45 H17          4.7320    -5.3700    -8.8640 h1         1 1JP       0.066200
     46 H18          2.8490    -3.0710    -9.5080 h1         1 1JP       0.033700
     47 H19          1.4540    -4.5670    -8.9360 ho         1 1JP       0.406000
     48 H20          4.5350    -3.6070   -11.2830 hc         1 1JP       0.057200
     49 H21          3.9500    -5.2770   -11.2850 hc         1 1JP       0.057200
     50 H22          2.2690    -2.8140   -11.8810 hc         1 1JP       0.051700
     51 H23          1.6860    -4.4840   -11.8850 hc         1 1JP       0.051700
     52 H24          3.7470    -2.0020   -13.6260 ha         1 1JP       0.133000
     53 H25          4.5360    -2.2740   -15.9460 ha         1 1JP       0.126500
     54 H26          4.1930    -4.4150   -17.1210 ha         1 1JP       0.124000
     55 H27          3.1000    -6.2970   -15.9610 ha         1 1JP       0.126500
     56 H28          2.2910    -6.1090   -13.8570 ha         1 1JP       0.133000
     57 HN3          1.6300     0.6840    -3.1890 hn         1 1JP       0.434800
@<TRIPOS>BOND
     1     5     4 1
     2     4     6 1
     3     4     2 1
     4     1     2 1
     5     6     7 1
     6     2     3 1
     7     7     8 1
     8     8     9 2
     9     8    10 1
    10    10    11 1
    11    18    16 1
    12    13    12 2
    13    11    12 1
    14    11    19 1
    15    12    14 1
    16    16    15 1
    17    16    17 1
    18    14    15 2
    19    19    20 1
    20    20    21 1
    21    23    22 1
    22    27    28 ar
    23    27    26 ar
    24    25    26 1
    25    25    24 1
    26    21    22 1
    27    28    29 ar
    28    26    31 ar
    29    22    24 1
    30    29    30 ar
    31    31    30 ar
    32     4    32 1
    33     5    33 1
    34     5    34 1
    35     6    35 1
    36     6    36 1
    37     7    37 1
    38     7    38 1
    39    10    39 1
    40    11    40 1
    41    15    41 1
    42    19    42 1
    43    19    43 1
    44    21    44 1
    45    21    45 1
    46    22    46 1
    47    23    47 1
    48    24    48 1
    49    24    49 1
    50    25    50 1
    51    25    51 1
    52    27    52 1
    53    28    53 1
    54    29    54 1
    55    30    55 1
    56    31    56 1
    57    57     5 1
@<TRIPOS>SUBSTRUCTURE
     1 1JP         1 TEMP              0 ****  ****    0 ROOT
