@<TRIPOS>MOLECULE
1JQ
   29    30     1     0     0
SMALL
bcc


@<TRIPOS>ATOM
      1 CBC         0.0150    0.4510   -0.1660 c3        1 1JQ     -0.131700
      2 CBS        -0.5820    0.0520   -1.4460 cc        1 1JQ      0.327000
      3 CBA        -0.5670   -1.0800   -2.2410 cd        1 1JQ     -0.390600
      4 OBK        -1.4290    0.9980   -2.0840 os        1 1JQ     -0.133100
      5 NBG        -1.9160    0.5020   -3.2000 nc        1 1JQ     -0.390300
      6 CBU        -1.4390   -0.7560   -3.3680 cd        1 1JQ      0.354800
      7 CBT        -1.7440   -1.6410   -4.4800 ca        1 1JQ     -0.105500
      8 CAU        -2.2010   -1.1330   -5.7050 ca        1 1JQ     -0.107500
      9 CAO        -2.4810   -1.9980   -6.7610 ca        1 1JQ     -0.140500
     10 CAJ        -2.3110   -3.3730   -6.6080 ca        1 1JQ     -0.134000
     11 CAP        -1.8590   -3.8850   -5.3910 ca        1 1JQ     -0.140500
     12 CAV        -1.5770   -3.0260   -4.3310 ca        1 1JQ     -0.107500
     13 CBF         2.4230    0.9740   -0.6170 c3        1 1JQ     -0.070100
     14 CBV         1.4540   -0.0100   -0.0110 c3        1 1JQ     -0.187700
     15 CBN         1.7960   -0.2550    1.4870 c         1 1JQ      0.915600
     16 OAC         0.8460   -0.3110    2.3190 o         1 1JQ     -0.837800
     17 OX0         3.0110   -0.4200    1.7830 o         1 1JQ     -0.837800
     18 HBC1       -0.0510    1.5650   -0.0470 hc        1 1JQ      0.089200
     19 HBC2       -0.5920   -0.0080    0.6720 hc        1 1JQ      0.089200
     20 HBV         1.5800   -1.0070   -0.5170 hc        1 1JQ      0.035700
     21 HBA        -0.0230   -2.0050   -2.0860 ha        1 1JQ      0.175000
     22 HAU        -2.3380   -0.0480   -5.8340 ha        1 1JQ      0.145000
     23 HAV        -1.2230   -3.4330   -3.3710 ha        1 1JQ      0.145000
     24 HAO        -2.8380   -1.5920   -7.7180 ha        1 1JQ      0.125000
     25 HAJ        -2.5320   -4.0530   -7.4430 ha        1 1JQ      0.122000
     26 HAP        -1.7250   -4.9690   -5.2660 ha        1 1JQ      0.125000
     27 HBF1        2.2810    1.9900   -0.1740 hc        1 1JQ      0.022367
     28 HBF2        3.4680    0.6420   -0.3980 hc        1 1JQ      0.022367
     29 HBF3        2.2840    1.0480   -1.7230 hc        1 1JQ      0.022367
@<TRIPOS>BOND
     1    1    2 1
     2    1   14 1
     3    1   18 1
     4    1   19 1
     5    2    3 2
     6    2    4 1
     7    3    6 1
     8    3   21 1
     9    4    5 1
    10    5    6 2
    11    6    7 1
    12    7    8 ar
    13    7   12 ar
    14    8    9 ar
    15    8   22 1
    16    9   10 ar
    17    9   24 1
    18   10   11 ar
    19   10   25 1
    20   11   12 ar
    21   11   26 1
    22   12   23 1
    23   13   14 1
    24   13   27 1
    25   13   28 1
    26   13   29 1
    27   14   15 1
    28   14   20 1
    29   15   16 1
    30   15   17 1
@<TRIPOS>SUBSTRUCTURE
     1 1JQ         1 TEMP              0 ****  ****    0 ROOT
