@<TRIPOS>MOLECULE
1JR
   33    36     1     0     0
SMALL
bcc


@<TRIPOS>ATOM
      1 C1           0.0000     0.0000     0.0000 ca         1 1JR      -0.094000
      2 C2           1.3830     0.0000     0.0000 ca         1 1JR      -0.095000
      3 C3          -0.6970     0.0060     1.1960 ca         1 1JR      -0.095000
      4 C4           2.4520    -4.6400     1.7190 ca         1 1JR      -0.222300
      5 C5           2.0770     0.0000     1.1920 ca         1 1JR      -0.092500
      6 C6          -0.0140     0.0140     2.3950 ca         1 1JR      -0.092500
      7 C7           3.1360    -3.4580     1.9610 ca         1 1JR      -0.055000
      8 C8           2.0660    -5.4260     2.7880 ca         1 1JR       0.408200
      9 C9           2.9980    -3.9530     4.2930 ca         1 1JR       0.419200
     10 C10          1.3800     0.0010     2.4010 ca         1 1JR      -0.009000
     11 C11          3.4120    -3.1140     3.2750 ca         1 1JR      -0.240600
     12 C12          3.1830    -0.7680     4.0110 cc         1 1JR      -0.292600
     13 C13          2.1190     0.0080     3.6840 cd         1 1JR      -0.223300
     14 C14          3.5400    -0.4040     5.3290 cc         1 1JR       0.233800
     15 C15          4.6960    -1.2260     5.7280 c          1 1JR       0.570000
     16 C16          4.1530    -1.8390     3.5900 c3         1 1JR       0.198300
     17 N17          2.3420    -5.0640     4.0260 nb         1 1JR      -0.577000
     18 N18          1.8610     0.7970     4.7690 na         1 1JR       0.558400
     19 N19          2.6990     0.5370     5.7080 nd         1 1JR      -0.561800
     20 N20          5.0500    -2.0550     4.7310 ns         1 1JR      -0.199900
     21 O21          5.2530    -1.1630     6.8080 o          1 1JR      -0.653500
     22 H1          -0.5400    -0.0030    -0.9390 ha         1 1JR       0.105000
     23 H2           1.9240    -0.0030    -0.9390 ha         1 1JR       0.106500
     24 H3          -1.7800     0.0120     1.1900 ha         1 1JR       0.106500
     25 H5           3.1600    -0.0050     1.1900 ha         1 1JR       0.107000
     26 H6          -0.5610     0.0170     3.3300 ha         1 1JR       0.107000
     27 H7           3.4500    -2.8210     1.1430 ha         1 1JR       0.111000
     28 H8           1.5280    -6.3490     2.6070 h4         1 1JR      -0.019900
     29 H9           3.2080    -3.6890     5.3220 h4         1 1JR      -0.008900
     30 H10          4.7210    -1.5090     2.7290 h1         1 1JR       0.033700
     31 H11          1.1290     1.4760     4.8240 hn         1 1JR       0.146700
     32 H12          5.8050    -2.7110     4.7620 hn         1 1JR       0.210500
     33 H4           2.2210    -4.9420     0.7040 ha         1 1JR       0.114000
@<TRIPOS>BOND
     1     1     2 ar  
     2     1     3 ar  
     3     1    22 1   
     4     2     5 ar  
     5     2    23 1   
     6     3     6 ar  
     7     3    24 1   
     8     4     7 ar  
     9     4     8 ar  
    10     4    33 1   
    11     5    10 ar  
    12     5    25 1   
    13     6    10 ar  
    14     6    26 1   
    15     7    11 ar  
    16     7    27 1   
    17     8    17 ar  
    18     8    28 1   
    19     9    11 ar  
    20     9    17 ar  
    21     9    29 1   
    22    10    13 1   
    23    11    16 1   
    24    12    13 2   
    25    12    14 1   
    26    12    16 1   
    27    13    18 1   
    28    14    15 1   
    29    14    19 2   
    30    15    20 1   
    31    15    21 2   
    32    16    20 1   
    33    16    30 1   
    34    18    19 1   
    35    18    31 1   
    36    20    32 1   
@<TRIPOS>SUBSTRUCTURE
     1 1JR         1 TEMP              0 ****  ****    0 ROOT
