@<TRIPOS>MOLECULE
1JR
   33    36     1     0     0
SMALL
bcc


@<TRIPOS>ATOM
      1 C1           0.0760    -0.1230    -0.0810 ca         1 1JR      -0.115000
      2 C2           1.3920     0.3360    -0.0090 ca         1 1JR      -0.127500
      3 C3          -0.5730    -0.5550     1.0750 ca         1 1JR      -0.127500
      4 C4          -2.2100     3.0780     4.9810 ca         1 1JR      -0.249300
      5 C5           2.0610     0.3610     1.2130 ca         1 1JR      -0.108500
      6 C6           0.0890    -0.5330     2.3010 ca         1 1JR      -0.108500
      7 C7          -1.6190     1.8560     5.3060 ca         1 1JR      -0.078000
      8 C8          -1.3830     4.2060     4.8340 ca         1 1JR       0.404200
      9 C9           0.5110     2.9860     5.3020 ca         1 1JR       0.419200
     10 C10          1.4120    -0.0750     2.3770 ca         1 1JR      -0.032000
     11 C11         -0.2300     1.7960     5.4700 ca         1 1JR      -0.234600
     12 C12          1.6210     0.1890     4.9490 cc         1 1JR      -0.264600
     13 C13          2.0850    -0.0560     3.6610 cd         1 1JR       0.003700
     14 C14          2.8040     0.0350     5.8120 cc         1 1JR       0.224800
     15 C15          2.3900     0.2800     7.2130 c          1 1JR       0.628000
     16 C16          0.4390     0.4980     5.8140 c3         1 1JR       0.231300
     17 N17         -0.0450     4.1700     4.9910 nb         1 1JR      -0.661000
     18 N18          3.4710    -0.3230     3.8210 na         1 1JR      -0.029600
     19 N19          3.8950    -0.2740     5.0840 nd         1 1JR      -0.403800
     20 N20          0.9830     0.4520     7.1890 ns         1 1JR      -0.549900
     21 O21          3.0800     0.3020     8.2360 o          1 1JR      -0.577500
     22 H1          -0.4480    -0.1410    -1.0480 ha         1 1JR       0.138000
     23 H2           1.9040     0.6830    -0.9190 ha         1 1JR       0.138000
     24 H3          -1.6110    -0.9170     1.0210 ha         1 1JR       0.138000
     25 H5           3.0920     0.7420     1.2590 ha         1 1JR       0.136500
     26 H6          -0.4220    -0.8750     3.2140 ha         1 1JR       0.136500
     27 H7          -2.2360     0.9540     5.4300 ha         1 1JR       0.140000
     28 H8          -1.8100     5.1930     4.5790 h4         1 1JR       0.025100
     29 H9           1.6110     2.9840     5.4180 h4         1 1JR       0.033100
     30 H10         -0.3200    -0.3390     5.7370 h1         1 1JR       0.078700
     31 H11          4.1040    -0.5480     3.0870 hn         1 1JR       0.327700
     32 H12          0.5600     1.0310     7.8740 hn         1 1JR       0.316500
     33 H4          -3.2960     3.1620     4.8430 ha         1 1JR       0.146000
@<TRIPOS>BOND
     1     1     2 ar  
     2     1     3 ar  
     3     1    22 1   
     4     2     5 ar  
     5     2    23 1   
     6     3     6 ar  
     7     3    24 1   
     8     4     7 ar  
     9     4     8 ar  
    10     4    33 1   
    11     5    10 ar  
    12     5    25 1   
    13     6    10 ar  
    14     6    26 1   
    15     7    11 ar  
    16     7    27 1   
    17     8    17 ar  
    18     8    28 1   
    19     9    11 ar  
    20     9    17 ar  
    21     9    29 1   
    22    10    13 1   
    23    11    16 1   
    24    12    13 2   
    25    12    14 1   
    26    12    16 1   
    27    13    18 1   
    28    14    15 1   
    29    14    19 2   
    30    15    20 1   
    31    15    21 2   
    32    16    20 1   
    33    16    30 1   
    34    18    19 1   
    35    18    31 1   
    36    20    32 1   
@<TRIPOS>SUBSTRUCTURE
     1 1JR         1 TEMP              0 ****  ****    0 ROOT
