@<TRIPOS>MOLECULE
1JS
   59    60     1     0     0
SMALL
bcc


@<TRIPOS>ATOM
      1 C1           1.3060    -0.0870    -0.9410 ca         1 1JS      -0.038000
      2 C2           2.0060     0.9220    -0.2730 ca         1 1JS      -0.138000
      3 C3           2.3000     0.7930     1.0800 ca         1 1JS      -0.051500
      4 C7           2.1800    -0.4980     3.1370 cg         1 1JS       0.159000
      5 C8           2.4340    -0.6160     4.3180 ch         1 1JS      -0.279000
      6 C9           2.7230    -0.7410     5.6580 ca         1 1JS       0.251000
      7 C10          3.4230     0.2790     6.3580 ca         1 1JS      -0.149000
      8 C11          3.7090     0.1470     7.6960 ca         1 1JS      -0.033000
      9 C12          3.3210    -1.0230     8.4170 ca         1 1JS      -0.284600
     10 C13          2.6100    -2.0380     7.7200 ca         1 1JS      -0.033000
     11 C14          2.3190    -1.9020     6.3860 ca         1 1JS      -0.149000
     12 C15          3.6690    -1.0530     9.7900 c          1 1JS       0.601700
     13 C20          3.6740    -2.5400    13.0480 c3         1 1JS      -0.094400
     14 C21          3.1570    -1.1550    13.3860 c3         1 1JS      -0.169400
     15 C22          4.2600    -0.2000    13.7460 c          1 1JS       0.556100
     16 C27          1.2030     2.0080    11.9900 c3         1 1JS       0.128400
     17 O28          0.9140     0.6130    11.9580 oh         1 1JS      -0.675800
     18 C4           1.8900    -0.3620     1.7820 ca         1 1JS      -0.089000
     19 C5           1.1840    -1.3780     1.1000 ca         1 1JS      -0.051500
     20 C6           0.8970    -1.2340    -0.2520 ca         1 1JS      -0.138000
     21 O16          4.1110    -0.2050    10.5630 o          1 1JS      -0.541100
     22 N17          3.4690    -2.4450    10.5150 ny         1 1JS      -0.711800
     23 C18          4.3830    -2.6450    11.6820 c3         1 1JS       0.084500
     24 O23          5.4520    -0.3580    13.5070 o          1 1JS      -0.441100
     25 N24          3.9000     1.0750    14.4590 ny         1 1JS      -0.665800
     26 C25          2.6080     1.6950    14.0220 c3         1 1JS       0.104800
     27 C26          2.6030     2.1580    12.5690 c3         1 1JS      -0.121400
     28 C29          5.0450    -4.0250    11.5930 c          1 1JS       0.534100
     29 O30          4.6000    -5.0200    11.0520 o          1 1JS      -0.344100
     30 N31          6.4280    -4.2160    12.2280 ny         1 1JS      -0.444300
     31 O32          6.6490    -3.2110    13.1030 oh         1 1JS      -0.376300
     32 H1           1.0750     0.0210    -2.0140 ha         1 1JS       0.168000
     33 H2           2.3250     1.8230    -0.8210 ha         1 1JS       0.166500
     34 H3           2.8510     1.5880     1.6050 ha         1 1JS       0.147000
     35 H4           3.7360     1.1850     5.8080 ha         1 1JS       0.187500
     36 H5           4.2520     0.9480     8.2290 ha         1 1JS       0.141000
     37 H6           2.2460    -2.9410     8.2350 ha         1 1JS       0.141000
     38 H7           1.7590    -2.6900     5.8510 ha         1 1JS       0.187500
     39 H8           4.4150    -2.8580    13.8340 hc         1 1JS       0.111700
     40 H9           2.8050    -3.2570    13.0890 hc         1 1JS       0.111700
     41 H10          2.4340    -1.2580    14.2480 hc         1 1JS       0.145200
     42 H11          2.5790    -0.6920    12.5280 hc         1 1JS       0.145200
     43 H12          0.4450     2.5450    12.6210 h1         1 1JS       0.077200
     44 H13          1.1800     2.4230    10.9450 h1         1 1JS       0.077200
     45 H14         -0.0120     0.5250    11.6950 ho         1 1JS       0.448000
     46 H15          0.8610    -2.2810     1.6410 ha         1 1JS       0.147000
     47 H16          0.3460    -2.0260    -0.7840 ha         1 1JS       0.166500
     48 H17          2.4930    -2.4850    10.8330 hn         1 1JS       0.467300
     49 H18          5.1900    -1.8360    11.6410 hx         1 1JS       0.182700
     50 H19          4.6670     1.7540    14.3160 hn         1 1JS       0.482800
     51 H20          1.7870     0.9380    14.1910 hx         1 1JS       0.124700
     52 H21          2.4240     2.5780    14.7060 hx         1 1JS       0.124700
     53 H22          3.3180     1.5620    11.9400 hc         1 1JS       0.091700
     54 H23          2.9040     3.2380    12.5050 hc         1 1JS       0.091700
     55 H24          7.1430    -4.2180    11.4680 hn         1 1JS       0.502800
     56 H25          7.5590    -3.3040    13.4870 ho         1 1JS       0.514000
     57 H172         3.6000    -3.1840     9.8130 hn         1 1JS       0.467300
     58 H242         3.8420     0.8760    15.4690 hn         1 1JS       0.482800
     59 H312         6.4520    -5.1460    12.7070 hn         1 1JS       0.502800
@<TRIPOS>BOND
     1     1     2 ar  
     2     1    20 ar  
     3     1    32 1   
     4     2     3 ar  
     5     2    33 1   
     6     3    18 ar  
     7     3    34 1   
     8     4     5 3   
     9     4    18 1   
    10     5     6 1   
    11     6     7 ar  
    12     6    11 ar  
    13     7     8 ar  
    14     7    35 1   
    15     8     9 ar  
    16     8    36 1   
    17     9    10 ar  
    18     9    12 1   
    19    10    11 ar  
    20    10    37 1   
    21    11    38 1   
    22    12    21 2   
    23    12    22 1   
    24    13    14 1   
    25    13    23 1   
    26    13    39 1   
    27    13    40 1   
    28    14    15 1   
    29    14    41 1   
    30    14    42 1   
    31    15    24 2   
    32    15    25 1   
    33    16    17 1   
    34    16    27 1   
    35    16    43 1   
    36    16    44 1   
    37    17    45 1   
    38    18    19 ar  
    39    19    20 ar  
    40    19    46 1   
    41    20    47 1   
    42    22    23 1   
    43    22    48 1   
    44    22    57 1   
    45    23    28 1   
    46    23    49 1   
    47    25    26 1   
    48    25    50 1   
    49    25    58 1   
    50    26    27 1   
    51    26    51 1   
    52    26    52 1   
    53    27    53 1   
    54    27    54 1   
    55    28    29 2   
    56    28    30 1   
    57    30    31 1   
    58    30    55 1   
    59    30    59 1   
    60    31    56 1   
@<TRIPOS>SUBSTRUCTURE
     1 1JS         1 TEMP              0 ****  ****    0 ROOT
