@<TRIPOS>MOLECULE
molecule
   56    57     1     0     0
SMALL
bcc


@<TRIPOS>ATOM
      1 C1           0.0000     0.0000     0.0000 ca         1 1JS      -0.125000
      2 C2           1.3840     0.0000     0.0000 ca         1 1JS      -0.131500
      3 C3           2.0780     0.0000     1.1920 ca         1 1JS      -0.108000
      4 C7           2.0920     0.0030     3.6450 cg         1 1JS      -0.124000
      5 C8           2.6590     0.0030     4.6720 ch         1 1JS      -0.094000
      6 C9           3.7670     0.3430     5.6860 ca         1 1JS       0.030000
      7 C10          3.4200    -0.3450     7.0770 ca         1 1JS      -0.086000
      8 C11          3.9550    -0.3280     7.9990 ca         1 1JS      -0.118500
      9 C12          5.3630     0.5750     7.9040 ca         1 1JS      -0.228600
     10 C13          5.5090     1.1800     6.3920 ca         1 1JS      -0.118500
     11 C14          4.7250     0.9800     5.5580 ca         1 1JS      -0.086000
     12 C15          5.9980     1.3020     9.2930 c          1 1JS       0.806700
     13 C20          5.2210     2.7660    11.4110 c3         1 1JS      -0.087400
     14 C21          4.9620     3.5420    12.9190 c3         1 1JS      -0.239400
     15 C22          4.9950     5.0850    12.6210 c          1 1JS       0.719100
     16 C27          6.3270     9.5080    13.9210 c3         1 1JS       0.155400
     17 O28          7.0690    10.1910    14.7370 oh         1 1JS      -0.589800
     18 C4           1.3790     0.0010     2.4030 ca         1 1JS       0.030000
     19 C5          -0.0190     0.0020     2.3940 ca         1 1JS      -0.108000
     20 C6          -0.6980     0.0060     1.1950 ca         1 1JS      -0.131500
     21 O16          6.6720     1.9240     9.0080 o          1 1JS      -0.376100
     22 N17          5.7910     0.4960    10.4150 ns         1 1JS      -0.621900
     23 C18          4.6490     1.2950    11.3190 c3         1 1JS      -0.026300
     24 O23          4.1610     5.2200    11.9270 o          1 1JS      -0.622100
     25 N24          5.5030     5.7380    13.2790 ns         1 1JS      -0.471900
     26 C25          5.1820     7.1650    13.4780 c3         1 1JS       0.052000
     27 C26          6.7420     7.9470    14.1570 c3         1 1JS      -0.079400
     28 C29          3.4830     1.3030    11.0050 c          1 1JS       0.744100
     29 O30          2.9490     2.0080    10.2160 o          1 1JS      -0.469100
     30 N31          2.3250     0.4640    11.6380 ns         1 1JS      -0.599400
     31 O32          1.0870     0.9380    11.8010 oh         1 1JS      -0.371100
     32 H1          -0.5420    -0.0000    -0.9380 ha         1 1JS       0.128000
     33 H2           1.9260    -0.0050    -0.9380 ha         1 1JS       0.130500
     34 H3           3.1610    -0.0000     1.1880 ha         1 1JS       0.138000
     35 H4           2.4240    -0.7650     7.1380 ha         1 1JS       0.114500
     36 H5           3.6140    -0.8310     8.8970 ha         1 1JS       0.128500
     37 H6           6.3670     1.7980     6.1580 ha         1 1JS       0.128500
     38 H7           4.8090     1.5890     4.6660 ha         1 1JS       0.114500
     39 H8           6.2880     2.7300    11.2240 hc         1 1JS       0.071700
     40 H9           4.7570     3.3630    10.6350 hc         1 1JS       0.071700
     41 H10          5.7490     3.2780    13.6150 hc         1 1JS       0.047200
     42 H11          3.9970     3.2600    13.3230 hc         1 1JS       0.047200
     43 H12          5.2790     9.6560    14.1530 h1         1 1JS       0.004700
     44 H13          6.5290     9.8000    12.8970 h1         1 1JS       0.004700
     45 H14          6.9310    11.1130    14.5910 ho         1 1JS       0.414000
     46 H15         -0.5660     0.0030     3.3290 ha         1 1JS       0.138000
     47 H16         -1.7820     0.0060     1.1890 ha         1 1JS       0.130500
     48 H17          6.5690     0.0570    10.8660 hn         1 1JS       0.316500
     49 H18          4.6940     0.8750    12.3160 h1         1 1JS       0.081700
     50 H19          6.2630     5.3590    13.8090 hn         1 1JS       0.311500
     51 H20          4.3710     7.2700    14.1880 h1         1 1JS       0.074200
     52 H21          4.9150     7.6230    12.5330 h1         1 1JS       0.074200
     53 H22          7.6120     7.6730    13.5730 hc         1 1JS       0.065200
     54 H23          6.8740     7.7250    15.2090 hc         1 1JS       0.065200
     55 H24          2.5200    -0.4720    11.9340 hn         1 1JS       0.281500
     56 H25          0.5180     0.2420    12.0850 ho         1 1JS       0.392000
@<TRIPOS>BOND
     1    31    30 1   
     2    30    28 1   
     3    29    28 2   
     4    28    23 1   
     5    13    14 1   
     6    13    23 1   
     7    24    15 2   
     8    14    15 1   
     9    23    22 1   
    10    15    25 1   
    11    22    12 1   
    12    25    26 1   
    13    12    21 2   
    14    12     9 1   
    15    26    27 1   
    16    10     9 ar  
    17    10    11 ar  
    18     9     8 ar  
    19    27    16 1   
    20    11     6 ar  
    21     8     7 ar  
    22    17    16 1   
    23     6     7 ar  
    24     6     5 1   
    25     5     4 3   
    26     4    18 1   
    27    19    18 ar  
    28    19    20 ar  
    29    18     3 ar  
    30    20     1 ar  
    31     3     2 ar  
    32     1     2 ar  
    33     1    32 1   
    34     2    33 1   
    35     3    34 1   
    36     7    35 1   
    37     8    36 1   
    38    10    37 1   
    39    11    38 1   
    40    13    39 1   
    41    13    40 1   
    42    14    41 1   
    43    14    42 1   
    44    16    43 1   
    45    16    44 1   
    46    17    45 1   
    47    19    46 1   
    48    20    47 1   
    49    22    48 1   
    50    23    49 1   
    51    25    50 1   
    52    26    51 1   
    53    26    52 1   
    54    27    53 1   
    55    27    54 1   
    56    30    55 1   
    57    31    56 1   
@<TRIPOS>SUBSTRUCTURE
     1 1JS         1 TEMP              0 ****  ****    0 ROOT
