@<TRIPOS>MOLECULE
1JS
   56    57     1     0     0
SMALL
bcc


@<TRIPOS>ATOM
      1 C1           0.0000     0.0000     0.0000 ca         1 1JS      -0.101000
      2 C2           1.3840     0.0000     0.0000 ca         1 1JS      -0.102500
      3 C3           2.0780     0.0000     1.1920 ca         1 1JS      -0.088500
      4 C7           2.0920     0.0030     3.6450 cg         1 1JS      -0.124000
      5 C8           2.6590     0.0030     4.6720 ch         1 1JS      -0.102000
      6 C9           3.7670     0.3430     5.6860 ca         1 1JS       0.089000
      7 C10          3.4200    -0.3450     7.0770 ca         1 1JS      -0.090500
      8 C11          3.9550    -0.3280     7.9990 ca         1 1JS      -0.079000
      9 C12          5.3630     0.5750     7.9040 ca         1 1JS      -0.246600
     10 C13          5.5090     1.1800     6.3920 ca         1 1JS      -0.079000
     11 C14          4.7250     0.9800     5.5580 ca         1 1JS      -0.090500
     12 C15          5.9980     1.3020     9.2930 c          1 1JS       0.772700
     13 C20          5.2210     2.7660    11.4110 c3         1 1JS      -0.034400
     14 C21          4.9620     3.5420    12.9190 c3         1 1JS      -0.158400
     15 C22          4.9950     5.0850    12.6210 c          1 1JS       0.567100
     16 C27          6.3270     9.5080    13.9210 c3         1 1JS       0.245400
     17 O28          7.0690    10.1910    14.7370 oh         1 1JS      -0.576800
     18 C4           1.3790     0.0010     2.4030 ca         1 1JS       0.056000
     19 C5          -0.0190     0.0020     2.3940 ca         1 1JS      -0.088500
     20 C6          -0.6980     0.0060     1.1950 ca         1 1JS      -0.102500
     21 O16          6.6720     1.9240     9.0080 o          1 1JS      -0.413100
     22 N17          5.7910     0.4960    10.4150 ns         1 1JS      -0.336900
     23 C18          4.6490     1.2950    11.3190 c3         1 1JS      -0.076300
     24 O23          4.1610     5.2200    11.9270 o          1 1JS      -0.698100
     25 N24          5.5030     5.7380    13.2790 ns         1 1JS       0.015100
     26 C25          5.1820     7.1650    13.4780 c3         1 1JS      -0.023000
     27 C26          6.7420     7.9470    14.1570 c3         1 1JS      -0.014400
     28 C29          3.4830     1.3030    11.0050 c          1 1JS       0.670100
     29 O30          2.9490     2.0080    10.2160 o          1 1JS      -0.515100
     30 N31          2.3250     0.4640    11.6380 ns         1 1JS      -0.258400
     31 O32          1.0870     0.9380    11.8010 oh         1 1JS      -0.427100
     32 H1          -0.5420    -0.0000    -0.9380 ha         1 1JS       0.101000
     33 H2           1.9260    -0.0050    -0.9380 ha         1 1JS       0.102500
     34 H3           3.1610    -0.0000     1.1880 ha         1 1JS       0.109000
     35 H4           2.4240    -0.7650     7.1380 ha         1 1JS       0.091500
     36 H5           3.6140    -0.8310     8.8970 ha         1 1JS       0.099000
     37 H6           6.3670     1.7980     6.1580 ha         1 1JS       0.099000
     38 H7           4.8090     1.5890     4.6660 ha         1 1JS       0.091500
     39 H8           6.2880     2.7300    11.2240 hc         1 1JS       0.040200
     40 H9           4.7570     3.3630    10.6350 hc         1 1JS       0.040200
     41 H10          5.7490     3.2780    13.6150 hc         1 1JS       0.017200
     42 H11          3.9970     3.2600    13.3230 hc         1 1JS       0.017200
     43 H12          5.2790     9.6560    14.1530 h1         1 1JS      -0.027800
     44 H13          6.5290     9.8000    12.8970 h1         1 1JS      -0.027800
     45 H14          6.9310    11.1130    14.5910 ho         1 1JS       0.395000
     46 H15         -0.5660     0.0030     3.3290 ha         1 1JS       0.109000
     47 H16         -1.7820     0.0060     1.1890 ha         1 1JS       0.102500
     48 H17          6.5690     0.0570    10.8660 hn         1 1JS       0.190500
     49 H18          4.6940     0.8750    12.3160 h1         1 1JS       0.046700
     50 H19          6.2630     5.3590    13.8090 hn         1 1JS       0.156500
     51 H20          4.3710     7.2700    14.1880 h1         1 1JS       0.040200
     52 H21          4.9150     7.6230    12.5330 h1         1 1JS       0.040200
     53 H22          7.6120     7.6730    13.5730 hc         1 1JS       0.024700
     54 H23          6.8740     7.7250    15.2090 hc         1 1JS       0.024700
     55 H24          2.5200    -0.4720    11.9340 hn         1 1JS       0.141500
     56 H25          0.5180     0.2420    12.0850 ho         1 1JS       0.385000
@<TRIPOS>BOND
     1     1     2 ar  
     2     1    20 ar  
     3     1    32 1   
     4     2     3 ar  
     5     2    33 1   
     6     3    18 ar  
     7     3    34 1   
     8     4     5 3   
     9     4    18 1   
    10     5     6 1   
    11     6     7 ar  
    12     6    11 ar  
    13     7     8 ar  
    14     7    35 1   
    15     8     9 ar  
    16     8    36 1   
    17     9    10 ar  
    18     9    12 1   
    19    10    11 ar  
    20    10    37 1   
    21    11    38 1   
    22    12    21 2   
    23    12    22 1   
    24    13    14 1   
    25    13    23 1   
    26    13    39 1   
    27    13    40 1   
    28    14    15 1   
    29    14    41 1   
    30    14    42 1   
    31    15    24 2   
    32    15    25 1   
    33    16    17 1   
    34    16    27 1   
    35    16    43 1   
    36    16    44 1   
    37    17    45 1   
    38    18    19 ar  
    39    19    20 ar  
    40    19    46 1   
    41    20    47 1   
    42    22    23 1   
    43    22    48 1   
    44    23    28 1   
    45    23    49 1   
    46    25    26 1   
    47    25    50 1   
    48    26    27 1   
    49    26    51 1   
    50    26    52 1   
    51    27    53 1   
    52    27    54 1   
    53    28    29 2   
    54    28    30 1   
    55    30    31 1   
    56    30    55 1   
    57    31    56 1   
@<TRIPOS>SUBSTRUCTURE
     1 1JS         1 TEMP              0 ****  ****    0 ROOT
