@<TRIPOS>MOLECULE
1JT
   45    48     1     0     0
SMALL
bcc


@<TRIPOS>ATOM
      1 C1          0.0420   -0.0620   -0.1900 ca        1 1JT     -0.092300
      2 C2          1.4430   -0.2220   -0.0930 ca        1 1JT     -0.051300
      3 C3         -0.7390    0.1610    0.9440 ca        1 1JT     -0.071000
      4 C4          2.0910   -0.1700    1.1420 ca        1 1JT     -0.143000
      5 C5          1.3200    0.0510    2.2840 ca        1 1JT     -0.070200
      6 C6         -0.1200    0.2250    2.1940 ca        1 1JT      0.066400
      7 N7         -0.6480    0.4320    3.4890 nc        1 1JT     -0.567100
      8 C8          0.4070    0.3890    4.3120 cd        1 1JT      0.427700
      9 N9          1.6310    0.1230    3.6530 na        1 1JT     -0.175300
     10 C10         2.9380    0.1850    4.2340 c3        1 1JT      0.101600
     11 C11         3.5220    1.5610    4.3830 ca        1 1JT     -0.156300
     12 C12         3.6860    2.3830    3.2620 ca        1 1JT     -0.083000
     13 C13         4.2610    3.6470    3.3750 ca        1 1JT     -0.095300
     14 C14         4.6820    4.0840    4.6540 ca        1 1JT      0.130100
     15 C15         4.5210    3.2680    5.7790 ca        1 1JT     -0.203000
     16 C16         3.9380    2.0100    5.6370 ca        1 1JT     -0.087000
     17 C17         2.2880   -0.4180   -1.3060 c3        1 1JT     -0.034100
     18 C18         1.5020   -0.8540   -2.5230 c3        1 1JT     -0.075400
     19 C19         0.2650   -0.0020   -2.6920 c3        1 1JT     -0.075400
     20 C20        -0.6580   -0.1600   -1.5030 c3        1 1JT     -0.031100
     21 O21         5.2470    5.3430    4.6830 os        1 1JT     -0.323900
     22 C22         5.6530    5.8220    5.9610 c3        1 1JT      0.112700
     23 C23         4.4340    4.5250    2.1970 c3        1 1JT     -0.043800
     24 H1         -1.8290    0.2840    0.8590 ha        1 1JT      0.147000
     25 H2          3.1800   -0.3000    1.2090 ha        1 1JT      0.133000
     26 H3          0.3640    0.5150    5.4010 h5        1 1JT      0.066800
     27 H4          2.8820   -0.3100    5.2480 h1        1 1JT      0.064200
     28 H5          3.6310   -0.4250    3.5820 h1        1 1JT      0.064200
     29 H6          3.3480    2.0260    2.2750 ha        1 1JT      0.146000
     30 H7          4.8460    3.6050    6.7730 ha        1 1JT      0.139000
     31 H8          3.8110    1.3730    6.5250 ha        1 1JT      0.131000
     32 H9          3.0870   -1.1770   -1.0900 hc        1 1JT      0.048200
     33 H10         2.8080    0.5550   -1.5290 hc        1 1JT      0.048200
     34 H11         2.1510   -0.7710   -3.4340 hc        1 1JT      0.043200
     35 H12         1.2060   -1.9300   -2.4180 hc        1 1JT      0.043200
     36 H13        -0.2790   -0.2980   -3.6270 hc        1 1JT      0.042200
     37 H14         0.5610    1.0740   -2.8010 hc        1 1JT      0.042200
     38 H15        -1.4680    0.6170   -1.5570 hc        1 1JT      0.049200
     39 H16        -1.1620   -1.1650   -1.5570 hc        1 1JT      0.049200
     40 H17         6.0560    6.8430    5.7390 h1        1 1JT      0.045367
     41 H18         6.4500    5.1690    6.3920 h1        1 1JT      0.045367
     42 H19         4.7800    5.8860    6.6540 h1        1 1JT      0.045367
     43 H20         4.0410    4.0440    1.2690 hc        1 1JT      0.048700
     44 H21         3.8940    5.4920    2.3590 hc        1 1JT      0.048700
     45 H22         5.5180    4.7610    2.0510 hc        1 1JT      0.048700
@<TRIPOS>BOND
     1    1    2 ar  
     2    1    3 ar  
     3    1   20 1   
     4    2    4 ar  
     5    2   17 1   
     6    3    6 ar  
     7    3   24 1   
     8    4    5 ar  
     9    4   25 1   
    10    5    6 ar  
    11    5    9 1   
    12    6    7 1   
    13    7    8 2   
    14    8    9 1   
    15    8   26 1   
    16    9   10 1   
    17   10   11 1   
    18   10   27 1   
    19   10   28 1   
    20   11   12 ar  
    21   11   16 ar  
    22   12   13 ar  
    23   12   29 1   
    24   13   14 ar  
    25   13   23 1   
    26   14   15 ar  
    27   14   21 1   
    28   15   16 ar  
    29   15   30 1   
    30   16   31 1   
    31   17   18 1   
    32   17   32 1   
    33   17   33 1   
    34   18   19 1   
    35   18   34 1   
    36   18   35 1   
    37   19   20 1   
    38   19   36 1   
    39   19   37 1   
    40   20   38 1   
    41   20   39 1   
    42   21   22 1   
    43   22   40 1   
    44   22   41 1   
    45   22   42 1   
    46   23   43 1   
    47   23   44 1   
    48   23   45 1   
@<TRIPOS>SUBSTRUCTURE
     1 1JT         1 TEMP              0 ****  ****    0 ROOT
