@<TRIPOS>MOLECULE
molecule
   45    48     1     0     0
SMALL
bcc


@<TRIPOS>ATOM
      1 C1           0.0000     0.0000     0.0000 ca         1 1JT      -0.090300
      2 C2           1.3840     0.0000     0.0000 ca         1 1JT      -0.055300
      3 C3          -0.6910     0.0020     1.1860 ca         1 1JT      -0.071000
      4 C4           2.0780     0.0000     1.1990 ca         1 1JT      -0.133000
      5 C5           1.3940     0.0050     2.4040 ca         1 1JT      -0.085200
      6 C6          -0.0110     0.0050     2.4030 ca         1 1JT       0.089400
      7 N7          -0.4060     0.0130     3.7030 nc         1 1JT      -0.605100
      8 C8           0.6380     0.0170     4.4770 cd         1 1JT       0.430700
      9 N9           1.7740     0.0080     3.7300 na         1 1JT      -0.156300
     10 C10          3.1480     0.0030     4.2400 c3         1 1JT       0.105600
     11 C11          3.6690     1.4160     4.2930 ca         1 1JT      -0.158300
     12 C12          4.3180     1.9540     3.1970 ca         1 1JT      -0.071000
     13 C13          4.7920     3.2520     3.2420 ca         1 1JT      -0.109300
     14 C14          4.6170     4.0140     4.3880 ca         1 1JT       0.151100
     15 C15          3.9660     3.4710     5.4860 ca         1 1JT      -0.217000
     16 C16          3.4940     2.1740     5.4360 ca         1 1JT      -0.076000
     17 C17          2.1930     0.0090    -1.2710 c3         1 1JT      -0.030100
     18 C18          1.3340    -0.4190    -2.4590 c3         1 1JT      -0.079400
     19 C19          0.0530     0.4230    -2.4580 c3         1 1JT      -0.079400
     20 C20         -0.8060    -0.0080    -1.2730 c3         1 1JT      -0.028100
     21 O21          5.0830     5.2890     4.4340 os         1 1JT      -0.324900
     22 C22          4.8670     6.0150     5.6460 c3         1 1JT       0.127700
     23 C23          5.4990     3.8370     2.0470 c3         1 1JT      -0.036800
     24 H1          -1.7740    -0.0000     1.1770 ha         1 1JT       0.141000
     25 H2           3.1620    -0.0100     1.1940 ha         1 1JT       0.122000
     26 H3           0.6080     0.0270     5.5600 h5         1 1JT       0.069800
     27 H4           3.1620    -0.4250     5.2360 h1         1 1JT       0.064700
     28 H5           3.7750    -0.5890     3.5840 h1         1 1JT       0.064700
     29 H6           4.4550     1.3590     2.3020 ha         1 1JT       0.137000
     30 H7           3.8280     4.0640     6.3820 ha         1 1JT       0.138000
     31 H8           2.9860     1.7500     6.2940 ha         1 1JT       0.128000
     32 H9           3.0250    -0.6770    -1.1680 hc         1 1JT       0.048700
     33 H10          2.5680     1.0100    -1.4460 hc         1 1JT       0.048700
     34 H11          1.8790    -0.2520    -3.3800 hc         1 1JT       0.044200
     35 H12          1.0800    -1.4680    -2.3640 hc         1 1JT       0.044200
     36 H13         -0.4910     0.2590    -3.3800 hc         1 1JT       0.044200
     37 H14          0.3070     1.4720    -2.3600 hc         1 1JT       0.044200
     38 H15         -1.1800    -1.0090    -1.4510 hc         1 1JT       0.049700
     39 H16         -1.6400     0.6770    -1.1700 hc         1 1JT       0.049700
     40 H17          3.8040     6.0900     5.8380 h1         1 1JT       0.043033
     41 H18          5.3470     5.4970     6.4680 h1         1 1JT       0.043033
     42 H19          5.2880     7.0090     5.5510 h1         1 1JT       0.043033
     43 H20          4.8700     4.5900     1.5880 hc         1 1JT       0.045700
     44 H21          5.7060     3.0530     1.3290 hc         1 1JT       0.045700
     45 H22          6.4310     4.2900     2.3640 hc         1 1JT       0.045700
@<TRIPOS>BOND
     1    23    13 1
     2    21    22 1
     3    21    14 1
     4    13    14 ar
     5    13    12 ar
     6    14    15 ar
     7    12    11 ar
     8    15    16 ar
     9    11    16 ar
    10    11    10 1
    11    10     9 1
    12    17    18 1
    13    17     2 1
    14     4     2 ar
    15     4     5 ar
    16    18    19 1
    17     2     1 ar
    18     9     5 1
    19     9     8 1
    20     5     6 ar
    21    19    20 1
    22     8     7 2
    23     1    20 1
    24     1     3 ar
    25     6     3 ar
    26     6     7 1
    27     3    24 1
    28     4    25 1
    29     8    26 1
    30    10    27 1
    31    10    28 1
    32    12    29 1
    33    15    30 1
    34    16    31 1
    35    17    32 1
    36    17    33 1
    37    18    34 1
    38    18    35 1
    39    19    36 1
    40    19    37 1
    41    20    38 1
    42    20    39 1
    43    22    40 1
    44    22    41 1
    45    22    42 1
    46    23    43 1
    47    23    44 1
    48    23    45 1
@<TRIPOS>SUBSTRUCTURE
     1 1JT         1 TEMP              0 ****  ****    0 ROOT
