@<TRIPOS>MOLECULE
1JT
   45    48     1     0     0
SMALL
bcc


@<TRIPOS>ATOM
      1 C1           0.0900    -0.0690    -0.0930 ca         1 1JT      -0.092300
      2 C2           1.4940    -0.2170    -0.0260 ca         1 1JT      -0.051300
      3 C3          -0.6720     0.1070     1.0620 ca         1 1JT      -0.071000
      4 C4           2.1640    -0.2010     1.1980 ca         1 1JT      -0.143000
      5 C5           1.4120    -0.0270     2.3610 ca         1 1JT      -0.070200
      6 C6          -0.0310     0.1350     2.3030 ca         1 1JT       0.066400
      7 N7          -0.5370     0.2920     3.6130 nc         1 1JT      -0.567100
      8 C8           0.5330     0.2310     4.4150 cd         1 1JT       0.427700
      9 N9           1.7480     0.0010     3.7250 na         1 1JT      -0.175300
     10 C10          3.0650     0.0560     4.2850 c3         1 1JT       0.101600
     11 C11          3.6380     1.4320     4.4720 ca         1 1JT      -0.156300
     12 C12          3.7720     2.2950     3.3780 ca         1 1JT      -0.083000
     13 C13          4.3370     3.5600     3.5250 ca         1 1JT      -0.095300
     14 C14          4.7770     3.9550     4.8100 ca         1 1JT       0.130100
     15 C15          4.6460     3.0990     5.9080 ca         1 1JT      -0.203000
     16 C16          4.0720     1.8410     5.7330 ca         1 1JT      -0.087000
     17 C17          2.3190    -0.3630    -1.2600 c3         1 1JT      -0.034100
     18 C18          1.5140    -0.7650    -2.4780 c3         1 1JT      -0.075400
     19 C19          0.2660     0.0800    -2.5940 c3         1 1JT      -0.075400
     20 C20         -0.6340    -0.1290    -1.3950 c3         1 1JT      -0.031100
     21 O21          5.3310     5.2190     4.8740 os         1 1JT      -0.323900
     22 C22          5.7560     5.6570     6.1600 c3         1 1JT       0.112700
     23 C23          4.4790     4.4810     2.3750 c3         1 1JT      -0.043800
     24 H1          -1.7650     0.2220     1.0020 ha         1 1JT       0.147000
     25 H2           3.2550    -0.3220     1.2410 ha         1 1JT       0.133000
     26 H3           0.5090     0.3200     5.5080 h5         1 1JT       0.066800
     27 H4           3.7510    -0.5240     3.5990 h1         1 1JT       0.064200
     28 H5           3.0320    -0.4740     5.2810 h1         1 1JT       0.064200
     29 H6           3.4190     1.9690     2.3850 ha         1 1JT       0.146000
     30 H7           4.9860     3.4040     6.9080 ha         1 1JT       0.139000
     31 H8           3.9670     1.1710     6.6000 ha         1 1JT       0.131000
     32 H9           3.1290    -1.1210    -1.0850 hc         1 1JT       0.048200
     33 H10          2.8250     0.6220    -1.4590 hc         1 1JT       0.048200
     34 H11          1.2300    -1.8470    -2.4040 hc         1 1JT       0.043200
     35 H12          2.1460    -0.6440    -3.3960 hc         1 1JT       0.043200
     36 H13         -0.2920    -0.1900    -3.5290 hc         1 1JT       0.042200
     37 H14          0.5500     1.1620    -2.6720 hc         1 1JT       0.042200
     38 H15         -1.1280    -1.1370    -1.4740 hc         1 1JT       0.049200
     39 H16         -1.4510     0.6410    -1.4070 hc         1 1JT       0.049200
     40 H17          6.5670     4.9970     6.5530 h1         1 1JT       0.045367
     41 H18          4.8960     5.6870     6.8720 h1         1 1JT       0.045367
     42 H19          6.1450     6.6880     5.9670 h1         1 1JT       0.045367
     43 H20          3.9340     5.4360     2.5830 hc         1 1JT       0.048700
     44 H21          4.0720     4.0290     1.4390 hc         1 1JT       0.048700
     45 H22          5.5590     4.7310     2.2180 hc         1 1JT       0.048700
@<TRIPOS>BOND
     1     1     2 ar  
     2     1     3 ar  
     3     1    20 1   
     4     2     4 ar  
     5     2    17 1   
     6     3     6 ar  
     7     3    24 1   
     8     4     5 ar  
     9     4    25 1   
    10     5     6 ar  
    11     5     9 1   
    12     6     7 1   
    13     7     8 2   
    14     8     9 1   
    15     8    26 1   
    16     9    10 1   
    17    10    11 1   
    18    10    27 1   
    19    10    28 1   
    20    11    12 ar  
    21    11    16 ar  
    22    12    13 ar  
    23    12    29 1   
    24    13    14 ar  
    25    13    23 1   
    26    14    15 ar  
    27    14    21 1   
    28    15    16 ar  
    29    15    30 1   
    30    16    31 1   
    31    17    18 1   
    32    17    32 1   
    33    17    33 1   
    34    18    19 1   
    35    18    34 1   
    36    18    35 1   
    37    19    20 1   
    38    19    36 1   
    39    19    37 1   
    40    20    38 1   
    41    20    39 1   
    42    21    22 1   
    43    22    40 1   
    44    22    41 1   
    45    22    42 1   
    46    23    43 1   
    47    23    44 1   
    48    23    45 1   
@<TRIPOS>SUBSTRUCTURE
     1 1JT         1 TEMP              0 ****  ****    0 ROOT
