@<TRIPOS>MOLECULE
1JU
   41    45     1     0     0
SMALL
bcc


@<TRIPOS>ATOM
      1 C1          0.0150    0.3090    0.2750 c3        1 1JU      0.099600
      2 C2          1.5020    0.0740    0.2740 ca        1 1JU     -0.125300
      3 C3         -1.4870    5.4270   -3.9090 c3        1 1JU     -0.031100
      4 C4         -1.1560    4.3720   -2.9100 ca        1 1JU     -0.091300
      5 C5         -1.1500    5.0370   -5.3320 c3        1 1JU     -0.076400
      6 C6         -1.6480    3.6420   -5.6350 c3        1 1JU     -0.075400
      7 C7         -0.9730    2.6270   -4.7370 c3        1 1JU     -0.035100
      8 C8         -0.9480    3.0300   -3.3020 ca        1 1JU     -0.048300
      9 C9         -0.6770    2.0370   -2.3590 ca        1 1JU     -0.145000
     10 C10        -1.0900    4.7500   -1.5680 ca        1 1JU     -0.070000
     11 C11        -0.6100    2.4020   -1.0150 ca        1 1JU     -0.070200
     12 N12        -0.3980    1.6740    0.1690 na        1 1JU     -0.178300
     13 C13        -0.4270    2.6260    1.2170 cc        1 1JU      0.427700
     14 C14        -0.8150    3.7800   -0.6020 ca        1 1JU      0.066400
     15 N15        -0.6920    3.8710    0.8040 nd        1 1JU     -0.564100
     16 C16         2.0900   -0.6070    1.3400 ca        1 1JU     -0.118000
     17 C17         2.2630    0.5180   -0.8290 ca        1 1JU     -0.095000
     18 O18         5.5700   -0.6000    0.0570 os        1 1JU     -0.331900
     19 C19         4.2070   -0.4610    0.2930 ca        1 1JU      0.065100
     20 C20         5.8410    0.0360   -1.2150 c3        1 1JU      0.320200
     21 O21         4.5900    0.5470   -1.7310 os        1 1JU     -0.330900
     22 C22         3.6110    0.2370   -0.7920 ca        1 1JU      0.057100
     23 C23         3.4670   -0.8950    1.3730 ca        1 1JU     -0.115000
     24 H1         -0.4290   -0.2550   -0.5990 h1        1 1JU      0.067700
     25 H2         -0.4290   -0.1090    1.2260 h1        1 1JU      0.067700
     26 H4         -2.5890    5.6440   -3.8370 hc        1 1JU      0.049700
     27 H5         -0.0390    5.0800   -5.4840 hc        1 1JU      0.043200
     28 H6         -1.6150    5.7710   -6.0400 hc        1 1JU      0.043200
     29 H7         -2.7590    3.6000   -5.4870 hc        1 1JU      0.043200
     30 H8         -1.4410    3.3850   -6.7070 hc        1 1JU      0.043200
     31 H9          0.0900    2.4820   -5.0770 hc        1 1JU      0.049200
     32 H10        -1.4920    1.6370   -4.8420 hc        1 1JU      0.049200
     33 H11        -0.5210    0.9950   -2.6730 ha        1 1JU      0.133000
     34 H12        -1.2540    5.7960   -1.2720 ha        1 1JU      0.148000
     35 H13        -0.2690    2.3270    2.2610 h5        1 1JU      0.066800
     36 H14         1.4690   -0.9380    2.1870 ha        1 1JU      0.137000
     37 H15         1.7980    1.0640   -1.6620 ha        1 1JU      0.167000
     38 H16         6.2300   -0.7360   -1.9230 h2        1 1JU      0.074700
     39 H17         3.9220   -1.4330    2.2130 ha        1 1JU      0.158000
     40 H18         6.5350    0.8950   -1.0430 h2        1 1JU      0.074700
     41 H3         -0.9460    6.3760   -3.6480 hc        1 1JU      0.049700
@<TRIPOS>BOND
     1    1    2 1   
     2    1   12 1   
     3    1   24 1   
     4    1   25 1   
     5    2   16 ar  
     6    2   17 ar  
     7    3    4 1   
     8    3    5 1   
     9    3   26 1   
    10    3   41 1   
    11    4    8 ar  
    12    4   10 ar  
    13    5    6 1   
    14    5   27 1   
    15    5   28 1   
    16    6    7 1   
    17    6   29 1   
    18    6   30 1   
    19    7    8 1   
    20    7   31 1   
    21    7   32 1   
    22    8    9 ar  
    23    9   11 ar  
    24    9   33 1   
    25   10   14 ar  
    26   10   34 1   
    27   11   12 1   
    28   11   14 ar  
    29   12   13 1   
    30   13   15 2   
    31   13   35 1   
    32   14   15 1   
    33   16   23 ar  
    34   16   36 1   
    35   17   22 ar  
    36   17   37 1   
    37   18   19 1   
    38   18   20 1   
    39   19   22 ar  
    40   19   23 ar  
    41   20   21 1   
    42   20   38 1   
    43   20   40 1   
    44   21   22 1   
    45   23   39 1   
@<TRIPOS>SUBSTRUCTURE
     1 1JU         1 TEMP              0 ****  ****    0 ROOT
