@<TRIPOS>MOLECULE
1JU
   41    45     1     0     0
SMALL
bcc


@<TRIPOS>ATOM
      1 C1           0.0190     0.2660     0.3490 c3         1 1JU       0.099600
      2 C2           1.5160     0.1750     0.2210 ca         1 1JU      -0.125300
      3 C3          -2.3380     4.4820    -4.4050 c3         1 1JU      -0.031100
      4 C4          -1.8800     3.6210    -3.2780 ca         1 1JU      -0.091300
      5 C5          -2.8430     3.6980    -5.5970 c3         1 1JU      -0.076400
      6 C6          -1.8820     2.5840    -5.9470 c3         1 1JU      -0.075400
      7 C7          -1.7640     1.6010    -4.8020 c3         1 1JU      -0.035100
      8 C8          -1.5720     2.2560    -3.4760 ca         1 1JU      -0.048300
      9 C9          -1.1050     1.4620    -2.4270 ca         1 1JU      -0.145000
     10 C10         -1.7350     4.2180    -2.0250 ca         1 1JU      -0.070000
     11 C11         -0.9520     2.0490    -1.1710 ca         1 1JU      -0.070200
     12 N12         -0.5510     1.5490     0.0800 na         1 1JU      -0.178300
     13 C13         -0.5900     2.6540     0.9660 cc         1 1JU       0.427700
     14 C14         -1.2690     3.4510    -0.9560 ca         1 1JU       0.066400
     15 N15         -1.0290     3.7820     0.3980 nd         1 1JU      -0.564100
     16 C16          2.2730    -0.2630     1.3060 ca         1 1JU      -0.118000
     17 C17          2.1160     0.5010    -1.0150 ca         1 1JU      -0.095000
     18 O18          5.5950    -0.1390    -0.3390 os         1 1JU      -0.331900
     19 C19          4.2530    -0.0920     0.0220 ca         1 1JU       0.065100
     20 C20          5.6730     0.3010    -1.7160 c3         1 1JU       0.320200
     21 O21          4.3300     0.6010    -2.1630 os         1 1JU      -0.330900
     22 C22          3.4850     0.3580    -1.0850 ca         1 1JU       0.057100
     23 C23          3.6710    -0.4100     1.2310 ca         1 1JU      -0.116000
     24 H1          -0.2840    -0.0290     1.3970 h1         1 1JU       0.067700
     25 H2          -0.4400    -0.4740    -0.3720 h1         1 1JU       0.067700
     26 H4          -3.1490     5.1720    -4.0460 hc         1 1JU       0.049700
     27 H5          -3.8520     3.2650    -5.3670 hc         1 1JU       0.043200
     28 H6          -2.9640     4.3870    -6.4720 hc         1 1JU       0.043200
     29 H7          -2.2380     2.0450    -6.8640 hc         1 1JU       0.043200
     30 H8          -0.8740     3.0170    -6.1810 hc         1 1JU       0.043200
     31 H9          -2.6990     0.9780    -4.7500 hc         1 1JU       0.049200
     32 H10         -0.9100     0.8990    -5.0030 hc         1 1JU       0.049200
     33 H11         -0.8690     0.4010    -2.5910 ha         1 1JU       0.133000
     34 H12         -1.9820     5.2800    -1.8790 ha         1 1JU       0.148000
     35 H13         -0.3040     2.5460     2.0200 h5         1 1JU       0.066800
     36 H14          1.7760    -0.5060     2.2580 ha         1 1JU       0.137000
     37 H15          1.5170     0.8570    -1.8660 ha         1 1JU       0.167000
     38 H16          6.2810     1.2380    -1.7560 h2         1 1JU       0.074700
     39 H17          4.2590    -0.7570     2.0890 ha         1 1JU       0.158000
     40 H18          6.0770    -0.5370    -2.3350 h2         1 1JU       0.074700
     41 H3          -1.4740     5.1280    -4.7260 hc         1 1JU       0.049700
@<TRIPOS>BOND
     1     1     2 1   
     2     1    12 1   
     3     1    24 1   
     4     1    25 1   
     5     2    16 ar  
     6     2    17 ar  
     7     3     4 1   
     8     3     5 1   
     9     3    26 1   
    10     3    41 1   
    11     4     8 ar  
    12     4    10 ar  
    13     5     6 1   
    14     5    27 1   
    15     5    28 1   
    16     6     7 1   
    17     6    29 1   
    18     6    30 1   
    19     7     8 1   
    20     7    31 1   
    21     7    32 1   
    22     8     9 ar  
    23     9    11 ar  
    24     9    33 1   
    25    10    14 ar  
    26    10    34 1   
    27    11    12 1   
    28    11    14 ar  
    29    12    13 1   
    30    13    15 2   
    31    13    35 1   
    32    14    15 1   
    33    16    23 ar  
    34    16    36 1   
    35    17    22 ar  
    36    17    37 1   
    37    18    19 1   
    38    18    20 1   
    39    19    22 ar  
    40    19    23 ar  
    41    20    21 1   
    42    20    38 1   
    43    20    40 1   
    44    21    22 1   
    45    23    39 1   
@<TRIPOS>SUBSTRUCTURE
     1 1JU         1 TEMP              0 ****  ****    0 ROOT
