@<TRIPOS>MOLECULE
molecule
   41    45     1     0     0
SMALL
bcc


@<TRIPOS>ATOM
      1 C1           0.0000     0.0000     0.0000 c3         1 1JU       0.227600
      2 C2           1.5070     0.0000     0.0000 ca         1 1JU      -0.147300
      3 C3          -1.5740     5.4080    -3.7830 c3         1 1JU      -0.026100
      4 C4          -1.2760     4.3630    -2.7380 ca         1 1JU      -0.098300
      5 C5          -0.8760     5.0650    -5.0980 c3         1 1JU      -0.079400
      6 C6          -1.2180     3.6170    -5.4640 c3         1 1JU      -0.078400
      7 C7          -0.5070     2.6910    -4.4780 c3         1 1JU      -0.029100
      8 C8          -0.7900     3.1090    -3.0610 ca         1 1JU      -0.060300
      9 C9          -0.5410     2.1840    -2.0610 ca         1 1JU      -0.139000
     10 C10         -1.5110     4.6970    -1.4270 ca         1 1JU      -0.071000
     11 C11         -0.7750     2.5060    -0.7340 ca         1 1JU      -0.122200
     12 N12         -0.6350     1.8330     0.4640 na         1 1JU      -0.249300
     13 C13         -1.0280     2.6800     1.4530 cc         1 1JU       0.444700
     14 C14         -1.2660     3.7800    -0.4070 ca         1 1JU       0.079400
     15 N15         -1.3970     3.8200     0.9440 nd         1 1JU      -0.622100
     16 C16          2.1970     0.0000     1.1980 ca         1 1JU      -0.073000
     17 C17          2.1960    -0.0070    -1.1980 ca         1 1JU      -0.072000
     18 O18          5.6150    -0.0180    -0.2620 os         1 1JU      -0.319900
     19 C19          4.2770    -0.0140     0.0060 ca         1 1JU       0.087100
     20 C20          5.7310    -0.4380    -1.6350 c3         1 1JU       0.331200
     21 O21          4.4840    -0.0220    -2.2250 os         1 1JU      -0.319900
     22 C22          3.5820    -0.0150    -1.2010 ca         1 1JU       0.042100
     23 C23          3.5790    -0.0010     1.2020 ca         1 1JU      -0.125000
     24 H1          -0.3610    -0.5100     0.8850 h1         1 1JU       0.078700
     25 H2          -0.3610    -0.5110    -0.8840 h1         1 1JU       0.078700
     26 H4          -2.6430     5.4510    -3.9490 hc         1 1JU       0.047700
     27 H5           0.1960     5.1660    -4.9780 hc         1 1JU       0.042700
     28 H6          -1.2250     5.7300    -5.8790 hc         1 1JU       0.042700
     29 H7          -0.8780     3.4060    -6.4710 hc         1 1JU       0.042200
     30 H8          -2.2890     3.4670    -5.3950 hc         1 1JU       0.042200
     31 H9          -0.8570     1.6770    -4.6270 hc         1 1JU       0.044700
     32 H10          0.5610     2.7350    -4.6560 hc         1 1JU       0.044700
     33 H11         -0.1670     1.2000    -2.3180 ha         1 1JU       0.106000
     34 H12         -1.8910     5.6820    -1.1830 ha         1 1JU       0.136000
     35 H13         -1.0820     2.4250     2.5040 h5         1 1JU       0.061800
     36 H14          1.6530    -0.0030     2.1350 ha         1 1JU       0.147000
     37 H15          1.6530    -0.0160    -2.1360 ha         1 1JU       0.152000
     38 H16          6.5540     0.0810    -2.1110 h2         1 1JU       0.077200
     39 H17          4.1170    -0.0010     2.1430 ha         1 1JU       0.153000
     40 H18          5.8180    -1.5170    -1.6830 h2         1 1JU       0.077200
     41 H3          -1.2220     6.3710    -3.4340 hc         1 1JU       0.047700
@<TRIPOS>BOND
     1    20    21 1
     2    20    18 1
     3    21    22 1
     4    18    19 1
     5    22    19 ar
     6    22    17 ar
     7    19    23 ar
     8    17     2 ar
     9    23    16 ar
    10     2    16 ar
    11     2     1 1
    12     1    12 1
    13     7     8 1
    14     7     6 1
    15     9     8 ar
    16     9    11 ar
    17    12    11 1
    18    12    13 1
    19     8     4 ar
    20    11    14 ar
    21     6     5 1
    22    13    15 2
    23     5     3 1
    24    14    15 1
    25    14    10 ar
    26     4    10 ar
    27     4     3 1
    28     1    24 1
    29     1    25 1
    30     3    41 1
    31     3    26 1
    32     5    27 1
    33     5    28 1
    34     6    29 1
    35     6    30 1
    36     7    31 1
    37     7    32 1
    38     9    33 1
    39    10    34 1
    40    13    35 1
    41    16    36 1
    42    17    37 1
    43    20    38 1
    44    23    39 1
    45    20    40 1
@<TRIPOS>SUBSTRUCTURE
     1 1JU         1 TEMP              0 ****  ****    0 ROOT
