@<TRIPOS>MOLECULE
1JV
   55    59     1     0     0
SMALL
bcc


@<TRIPOS>ATOM
      1 C1           0.0010    -0.6960     0.5030 c3         1 1JV      -0.109100
      2 C2           1.2820    -0.0940    -0.0510 c3         1 1JV       0.136800
      3 C3           2.1360     0.4990     1.0600 c3         1 1JV      -0.109100
      4 O4           0.9910     0.9890    -0.9350 oh         1 1JV      -0.595800
      5 C5           2.0870    -1.1270    -0.8850 c3         1 1JV       0.025300
      6 N6           2.4290    -2.3520    -0.1960 na         1 1JV       0.092400
      7 C7           3.5970    -2.5320     0.5530 cc         1 1JV      -0.119300
      8 C8           3.5320    -3.8270     1.1040 cd         1 1JV      -0.221300
      9 C9           2.2610    -4.3510     0.6300 cd         1 1JV       0.318200
     10 N10          1.6290    -3.4330    -0.1380 nc         1 1JV      -0.511800
     11 C11          4.4940    -4.4900     1.9380 ca         1 1JV       0.057000
     12 C12          4.1890    -5.7160     2.5590 ca         1 1JV      -0.163000
     13 C13          5.1240    -6.3510     3.3560 ca         1 1JV      -0.067000
     14 C14          6.4140    -5.8140     3.5860 ca         1 1JV      -0.188500
     15 C15          6.7040    -4.5780     2.9810 ca         1 1JV       0.151100
     16 O16          7.8320    -3.7900     3.1130 os         1 1JV      -0.330900
     17 C17          9.0580    -4.3820     3.5130 c3         1 1JV       0.135400
     18 C18          9.0240    -4.7730     4.9830 c3         1 1JV      -0.041100
     19 C19          8.4530    -6.1150     5.1230 cc         1 1JV      -0.226700
     20 C20          7.3140    -6.5850     4.4410 cd         1 1JV       0.427800
     21 N21          7.0540    -7.9310     4.6860 nd         1 1JV      -0.633000
     22 C22          7.9590    -8.4260     5.5430 cc         1 1JV       0.306400
     23 S23          9.1370    -7.3100     6.0600 ss         1 1JV       0.068700
     24 C24          7.9590    -9.7890     6.0410 cc         1 1JV       0.403500
     25 N25          8.7070   -10.2290     7.0900 nd         1 1JV      -0.684000
     26 C26          8.3630   -11.5830     7.2010 cd         1 1JV       0.523900
     27 N27          7.4500   -11.9790     6.2730 nc         1 1JV      -0.505800
     28 N28          7.1940   -10.8790     5.5370 na         1 1JV      -0.034400
     29 C29          6.2740   -10.8910     4.4330 c3         1 1JV       0.023300
     30 C30          4.7730   -10.6710     4.8590 c3         1 1JV       0.612900
     31 F31          4.4940    -9.4370     5.3790 f          1 1JV      -0.229300
     32 F32          3.9310   -10.8010     3.7830 f          1 1JV      -0.229300
     33 F33          4.3090   -11.5660     5.7840 f          1 1JV      -0.229300
     34 C34          5.7540    -3.9350     2.1560 ca         1 1JV      -0.169000
     35 H1           0.2270    -1.3710     1.3620 hc         1 1JV       0.051700
     36 H2          -0.5280    -1.2860    -0.2850 hc         1 1JV       0.051700
     37 H3          -0.6740     0.1210     0.8570 hc         1 1JV       0.051700
     38 H4           3.0050     1.0470     0.6250 hc         1 1JV       0.051700
     39 H5           1.5280     1.2200     1.6570 hc         1 1JV       0.051700
     40 H6           2.5060    -0.3110     1.7310 hc         1 1JV       0.051700
     41 H7           0.2690     0.7040    -1.5080 ho         1 1JV       0.403000
     42 H8           3.0490    -0.6380    -1.2100 h1         1 1JV       0.073700
     43 H9           1.4850    -1.3800    -1.8040 h1         1 1JV       0.073700
     44 H10          4.3620    -1.7600     0.6320 h4         1 1JV       0.181000
     45 H11          1.8330    -5.3340     0.8270 h4         1 1JV       0.047100
     46 H12          3.1970    -6.1680     2.4140 ha         1 1JV       0.139000
     47 H13          4.8350    -7.3030     3.8340 ha         1 1JV       0.156000
     48 H14          9.7980    -3.5510     3.3400 h1         1 1JV       0.064200
     49 H15          9.3040    -5.2580     2.8600 h1         1 1JV       0.064200
     50 H16         10.0660    -4.7380     5.4000 hc         1 1JV       0.073700
     51 H17          8.4050    -4.0230     5.5500 hc         1 1JV       0.073700
     52 H18          8.7900   -12.2430     7.9650 h5         1 1JV       0.079100
     53 H19          6.5380   -10.0840     3.6970 h1         1 1JV       0.116200
     54 H20          6.3070   -11.8940     3.9180 h1         1 1JV       0.116200
     55 H21          6.0330    -2.9750     1.6960 ha         1 1JV       0.145000
@<TRIPOS>BOND
     1     1     2 1   
     2     1    35 1   
     3     1    36 1   
     4     1    37 1   
     5     2     3 1   
     6     2     4 1   
     7     2     5 1   
     8     3    38 1   
     9     3    39 1   
    10     3    40 1   
    11     4    41 1   
    12     5     6 1   
    13     5    42 1   
    14     5    43 1   
    15     6     7 1   
    16     6    10 1   
    17     7     8 2   
    18     7    44 1   
    19     8     9 1   
    20     8    11 1   
    21     9    10 2   
    22     9    45 1   
    23    11    12 ar  
    24    11    34 ar  
    25    12    13 ar  
    26    12    46 1   
    27    13    14 ar  
    28    13    47 1   
    29    14    15 ar  
    30    14    20 1   
    31    15    16 1   
    32    15    34 ar  
    33    16    17 1   
    34    17    18 1   
    35    17    48 1   
    36    17    49 1   
    37    18    19 1   
    38    18    50 1   
    39    18    51 1   
    40    19    20 2   
    41    19    23 1   
    42    20    21 1   
    43    21    22 2   
    44    22    23 1   
    45    22    24 1   
    46    24    25 2   
    47    24    28 1   
    48    25    26 1   
    49    26    27 2   
    50    26    52 1   
    51    27    28 1   
    52    28    29 1   
    53    29    30 1   
    54    29    53 1   
    55    29    54 1   
    56    30    31 1   
    57    30    32 1   
    58    30    33 1   
    59    34    55 1   
@<TRIPOS>SUBSTRUCTURE
     1 1JV         1 TEMP              0 ****  ****    0 ROOT
