@<TRIPOS>MOLECULE
molecule
   55    59     1     0     0
SMALL
bcc


@<TRIPOS>ATOM
      1 C1           0.0000     0.0000     0.0000 c3         1 1JV      -0.119600
      2 C2           1.5290     0.0000     0.0000 c3         1 1JV       0.132800
      3 C3           2.0400     0.0000     1.4430 c3         1 1JV      -0.119600
      4 O4           2.0060    -1.1660    -0.6730 oh         1 1JV      -0.599800
      5 C5           2.0400     1.2500    -0.7210 c3         1 1JV       0.091300
      6 N6           3.5040     1.2500    -0.7210 na         1 1JV       0.083400
      7 C7           4.2950     1.3450    -1.8090 cc         1 1JV      -0.080300
      8 C8           5.5900     1.3080    -1.3830 cd         1 1JV      -0.277300
      9 C9           5.5730     1.1860     0.0200 cc         1 1JV       0.350200
     10 N10          4.3250     1.1570     0.4090 nd         1 1JV      -0.513800
     11 C11          6.7990     1.3830    -2.2420 ca         1 1JV       0.043000
     12 C12          6.6610     1.5090    -3.6240 ca         1 1JV      -0.148000
     13 C13          7.7820     1.5580    -4.4290 ca         1 1JV      -0.078000
     14 C14          9.0410     1.4990    -3.8530 ca         1 1JV      -0.163500
     15 C15          9.1880     1.4050    -2.4610 ca         1 1JV       0.138100
     16 O16         10.4360     1.4310    -1.9350 os         1 1JV      -0.352900
     17 C17         11.2460     0.2570    -1.9380 c3         1 1JV       0.157400
     18 C18         11.1830    -0.4340    -3.3030 c3         1 1JV      -0.042100
     19 C19         11.2740     0.5930    -4.4030 cc         1 1JV      -0.139700
     20 C20         10.2810     1.4870    -4.6870 cd         1 1JV       0.440800
     21 N21         10.5450     2.2810    -5.7090 nd         1 1JV      -0.674000
     22 C22         11.6960     2.1470    -6.2980 cc         1 1JV       0.413400
     23 S23         12.6080     0.8590    -5.5120 ss         1 1JV      -0.109300
     24 C24         12.1650     2.9450    -7.4440 cc         1 1JV       0.444500
     25 N25         13.3280     2.8220    -8.0550 nd         1 1JV      -0.751000
     26 C26         13.4120     3.7040    -9.0450 cd         1 1JV       0.578900
     27 N27         12.3100     4.4080    -9.0900 nc         1 1JV      -0.529800
     28 N28         11.4770     3.9340    -8.0640 na         1 1JV      -0.051400
     29 C29         10.1360     4.4170    -7.7270 c3         1 1JV       0.022300
     30 C30          9.0940     3.6260    -8.5200 c3         1 1JV       0.601900
     31 F31          9.1960     2.2680    -8.1990 f          1 1JV      -0.217967
     32 F32          7.8130     4.0860    -8.1960 f          1 1JV      -0.217967
     33 F33          9.3210     3.7980    -9.8890 f          1 1JV      -0.217967
     34 C34          8.0660     1.3330    -1.6620 ca         1 1JV      -0.147000
     35 H1          -0.3610    -0.8430     0.5760 hc         1 1JV       0.048867
     36 H2          -0.3610     0.9210     0.4420 hc         1 1JV       0.048867
     37 H3          -0.3610    -0.0770    -1.0180 hc         1 1JV       0.048867
     38 H4           3.0200    -0.4590     1.4790 hc         1 1JV       0.048867
     39 H5           2.1060     1.0200     1.8030 hc         1 1JV       0.048867
     40 H6           1.3550    -0.5600     2.0680 hc         1 1JV       0.048867
     41 H7           1.5280    -1.9210    -0.3720 ho         1 1JV       0.408000
     42 H8           1.6790     1.2500    -1.7430 h1         1 1JV       0.068200
     43 H9           1.6790     2.1350    -0.2110 h1         1 1JV       0.068200
     44 H10          3.9620     1.4340    -2.8360 h4         1 1JV       0.174000
     45 H11          6.4420     1.1310     0.6650 h4         1 1JV       0.050100
     46 H12          5.6740     1.5700    -4.0660 ha         1 1JV       0.132000
     47 H13          7.6770     1.6560    -5.5030 ha         1 1JV       0.147000
     48 H14         10.8470    -0.4270    -1.1990 h1         1 1JV       0.059200
     49 H15         12.2720     0.5590    -1.7650 h1         1 1JV       0.059200
     50 H16         12.0390    -1.0930    -3.3860 hc         1 1JV       0.070200
     51 H17         10.2220    -0.9290    -3.3840 hc         1 1JV       0.070200
     52 H18         14.2600     3.8230    -9.7090 h5         1 1JV       0.085100
     53 H19         10.0580     5.4680    -7.9760 h1         1 1JV       0.114700
     54 H20          9.9600     4.2830    -6.6660 h1         1 1JV       0.114700
     55 H21          8.1680     1.1450    -0.6000 ha         1 1JV       0.143000
@<TRIPOS>BOND
     1    33    30 1   
     2    32    30 1   
     3    31    30 1   
     4    30    29 1   
     5    29    28 1   
     6    27    28 1   
     7    27    26 2   
     8    28    24 1   
     9    26    25 1   
    10     1     2 1   
    11     9    10 2   
    12     9     8 1   
    13    24    25 2   
    14    24    22 1   
    15    10     6 1   
    16    12    13 ar  
    17    12    11 ar  
    18    13    14 ar  
    19    21    22 2   
    20    21    20 1   
    21     8    11 1   
    22     8     7 2   
    23    22    23 1   
    24     3     2 1   
    25    11    34 ar  
    26     6     7 1   
    27     6     5 1   
    28     2     5 1   
    29     2     4 1   
    30    14    20 1   
    31    14    15 ar  
    32    20    19 2   
    33    34    15 ar  
    34    15    16 1   
    35    23    19 1   
    36    19    18 1   
    37    16    17 1   
    38    18    17 1   
    39     1    35 1   
    40     1    36 1   
    41     1    37 1   
    42     3    38 1   
    43     3    39 1   
    44     3    40 1   
    45     4    41 1   
    46     5    42 1   
    47     5    43 1   
    48     7    44 1   
    49     9    45 1   
    50    12    46 1   
    51    13    47 1   
    52    17    48 1   
    53    17    49 1   
    54    18    50 1   
    55    18    51 1   
    56    26    52 1   
    57    29    53 1   
    58    29    54 1   
    59    34    55 1   
@<TRIPOS>SUBSTRUCTURE
     1 1JV         1 TEMP              0 ****  ****    0 ROOT
