@<TRIPOS>MOLECULE
1JV
   55    59     1     0     0
SMALL
bcc


@<TRIPOS>ATOM
      1 C1          0.0480    0.2870   -0.3050 c3        1 1JV     -0.125600
      2 C2          1.5460    0.1790   -0.5710 c3        1 1JV      0.130800
      3 C3          2.0980   -1.1060    0.0240 c3        1 1JV     -0.125600
      4 O4          1.7900    0.2340   -1.9770 oh        1 1JV     -0.606800
      5 C5          2.2300    1.4380    0.0180 c3        1 1JV      0.062300
      6 N6          3.6750    1.4450   -0.0690 na        1 1JV      0.089400
      7 C7          4.3870    1.4980   -1.2710 cc        1 1JV     -0.095300
      8 C8          5.7550    1.4720   -0.9330 cd        1 1JV     -0.235300
      9 C9          5.7610    1.3910    0.5180 cd        1 1JV      0.317200
     10 N10         4.4960    1.3670    0.9970 nc        1 1JV     -0.517800
     11 C11         6.8890    1.5180   -1.8130 ca        1 1JV      0.046000
     12 C12         6.7150    1.4840   -3.2080 ca        1 1JV     -0.149000
     13 C13         7.8080    1.5220   -4.0670 ca        1 1JV     -0.080000
     14 C14         9.1100    1.5910   -3.5580 ca        1 1JV     -0.157500
     15 C15         9.2860    1.6420   -2.1600 ca        1 1JV      0.117100
     16 O16        10.5320    1.9000   -1.6050 os        1 1JV     -0.336900
     17 C17        11.4640    0.8190   -1.6040 c3        1 1JV      0.142400
     18 C18        11.5870    0.0480   -2.9090 c3        1 1JV     -0.034100
     19 C19        11.4540    0.8820   -4.1120 cc        1 1JV     -0.217700
     20 C20        10.2730    1.5830   -4.4330 cd        1 1JV      0.417800
     21 N21        10.3170    2.2570   -5.6400 nd        1 1JV     -0.619000
     22 C22        11.5240    2.0660   -6.2030 cc        1 1JV      0.296400
     23 S23        12.5930    1.0870   -5.3010 ss        1 1JV      0.085700
     24 C24        11.9340    2.6100   -7.4840 cc        1 1JV      0.407500
     25 N25        13.1070    2.3120   -8.1100 nd        1 1JV     -0.688000
     26 C26        13.0520    3.0570   -9.2950 cd        1 1JV      0.523900
     27 N27        11.9090    3.7870   -9.4140 nc        1 1JV     -0.507800
     28 N28        11.2070    3.5300   -8.2920 na        1 1JV     -0.034400
     29 C29         9.9140    4.1060   -8.0460 c3        1 1JV      0.021300
     30 C30         8.7330    3.2900   -8.6960 c3        1 1JV      0.611900
     31 F31         8.6020    2.0030   -8.2520 f         1 1JV     -0.230633
     32 F32         7.5210    3.8810   -8.4400 f         1 1JV     -0.230633
     33 F33         8.8000    3.1950  -10.0600 f         1 1JV     -0.230633
     34 C34         8.1900    1.5990   -1.2940 ca        1 1JV     -0.145000
     35 H1         -0.3530    1.2370   -0.7320 hc        1 1JV      0.050200
     36 H2         -0.1510    0.2640    0.7920 hc        1 1JV      0.050200
     37 H3         -0.4850   -0.5690   -0.7850 hc        1 1JV      0.050200
     38 H4          2.1110   -1.0370    1.1370 hc        1 1JV      0.050200
     39 H5          1.4610   -1.9730   -0.2760 hc        1 1JV      0.050200
     40 H6          3.1370   -1.2890   -0.3400 hc        1 1JV      0.050200
     41 H7          1.4240   -0.5730   -2.3570 ho        1 1JV      0.409000
     42 H8          1.9190    1.5270    1.0970 h1        1 1JV      0.079200
     43 H9          1.8550    2.3340   -0.5550 h1        1 1JV      0.079200
     44 H10         3.8730    1.5340   -2.2330 h4        1 1JV      0.195000
     45 H11         6.6290    1.3520    1.1780 h4        1 1JV      0.044100
     46 H12         5.6990    1.4260   -3.6270 ha        1 1JV      0.136000
     47 H13         7.6500    1.4970   -5.1570 ha        1 1JV      0.151000
     48 H14        12.4300    1.3360   -1.3500 h1        1 1JV      0.054200
     49 H15        11.1860    0.1080   -0.7800 h1        1 1JV      0.054200
     50 H16        12.5770   -0.4840   -2.9050 hc        1 1JV      0.065200
     51 H17        10.7830   -0.7420   -2.9390 hc        1 1JV      0.065200
     52 H18        13.8530    3.0430  -10.0430 h5        1 1JV      0.078100
     53 H19         9.8640    5.1400   -8.4960 h1        1 1JV      0.119200
     54 H20         9.7160    4.1700   -6.9410 h1        1 1JV      0.119200
     55 H21         8.3590    1.6510   -0.2080 ha        1 1JV      0.147000
@<TRIPOS>BOND
     1    1    2 1   
     2    1   35 1   
     3    1   36 1   
     4    1   37 1   
     5    2    3 1   
     6    2    4 1   
     7    2    5 1   
     8    3   38 1   
     9    3   39 1   
    10    3   40 1   
    11    4   41 1   
    12    5    6 1   
    13    5   42 1   
    14    5   43 1   
    15    6    7 1   
    16    6   10 1   
    17    7    8 2   
    18    7   44 1   
    19    8    9 1   
    20    8   11 1   
    21    9   10 2   
    22    9   45 1   
    23   11   12 ar  
    24   11   34 ar  
    25   12   13 ar  
    26   12   46 1   
    27   13   14 ar  
    28   13   47 1   
    29   14   15 ar  
    30   14   20 1   
    31   15   16 1   
    32   15   34 ar  
    33   16   17 1   
    34   17   18 1   
    35   17   48 1   
    36   17   49 1   
    37   18   19 1   
    38   18   50 1   
    39   18   51 1   
    40   19   20 2   
    41   19   23 1   
    42   20   21 1   
    43   21   22 2   
    44   22   23 1   
    45   22   24 1   
    46   24   25 2   
    47   24   28 1   
    48   25   26 1   
    49   26   27 2   
    50   26   52 1   
    51   27   28 1   
    52   28   29 1   
    53   29   30 1   
    54   29   53 1   
    55   29   54 1   
    56   30   31 1   
    57   30   32 1   
    58   30   33 1   
    59   34   55 1   
@<TRIPOS>SUBSTRUCTURE
     1 1JV         1 TEMP              0 ****  ****    0 ROOT
