@<TRIPOS>MOLECULE
1JX
   21    22     1     0     0
SMALL
bcc


@<TRIPOS>ATOM
      1 O           -0.0460     0.0060     0.1020 o          1 1JX      -0.616500
      2 C            1.1970     0.0270     0.0870 c          1 1JX       0.701500
      3 NAG          1.8940    -0.0260     1.2820 ns         1 1JX      -0.541400
      4 CAK          3.3020    -0.0180     1.3170 ca         1 1JX       0.495200
      5 NAF          3.9330    -0.2270     2.5060 nb         1 1JX      -0.680000
      6 CAD          5.2760    -0.2200     2.5110 ca         1 1JX       0.393200
      7 CAC          6.0650    -0.0210     1.3680 ca         1 1JX      -0.240300
      8 CAE          5.4330     0.1920     0.1460 ca         1 1JX      -0.126000
      9 CAJ          4.0270     0.2100     0.0850 ca         1 1JX      -0.006700
     10 N            3.3390     0.5460    -1.0890 nu         1 1JX      -0.718600
     11 CA           1.9830     0.0420    -1.2350 c3         1 1JX       0.139500
     12 CB           1.1970     0.8480    -2.2690 c3         1 1JX      -0.094100
     13 H1           1.3870    -0.0890     2.1390 hn         1 1JX       0.348500
     14 H2           5.7370    -0.3890     3.5010 h4         1 1JX       0.027100
     15 H3           7.1600    -0.0330     1.4390 ha         1 1JX       0.147000
     16 H4           6.0310     0.3560    -0.7630 ha         1 1JX       0.141000
     17 H5           3.8780     0.4450    -1.9240 hn         1 1JX       0.407800
     18 H6           1.9930    -1.0440    -1.5730 h1         1 1JX       0.051700
     19 H7           1.1580     1.9280    -1.9910 hc         1 1JX       0.057367
     20 H8           0.1530     0.4520    -2.3100 hc         1 1JX       0.057367
     21 H9           1.6670     0.7500    -3.2770 hc         1 1JX       0.057367
@<TRIPOS>BOND
     1     1     2 2   
     2     2     3 1   
     3     2    11 1   
     4     3     4 1   
     5     3    13 1   
     6     4     5 ar  
     7     4     9 ar  
     8     5     6 ar  
     9     6     7 ar  
    10     6    14 1   
    11     7     8 ar  
    12     7    15 1   
    13     8     9 ar  
    14     8    16 1   
    15     9    10 1   
    16    10    11 1   
    17    10    17 1   
    18    11    12 1   
    19    11    18 1   
    20    12    19 1   
    21    12    20 1   
    22    12    21 1   
@<TRIPOS>SUBSTRUCTURE
     1 1JX         1 TEMP              0 ****  ****    0 ROOT
