@<TRIPOS>MOLECULE
1JX
   21    22     1     0     0
SMALL
bcc


@<TRIPOS>ATOM
      1 O            0.0000     0.0000     0.0000 o          1 1JX      -0.652500
      2 C            1.2120     0.0000     0.0000 c          1 1JX       0.568500
      3 NAG          1.8760     0.0000     1.1710 ns         1 1JX      -0.092400
      4 CAK          3.2700    -0.0500     1.2040 ca         1 1JX       0.323200
      5 NAF          3.9280     0.2270     2.3160 nb         1 1JX      -0.595000
      6 CAD          5.2470     0.1790     2.3710 ca         1 1JX       0.421200
      7 CAC          5.9980    -0.1650     1.2640 ca         1 1JX      -0.235300
      8 CAE          5.3520    -0.4620     0.0700 ca         1 1JX      -0.035000
      9 CAJ          3.9690    -0.4010     0.0440 ca         1 1JX      -0.139700
     10 N            3.2500    -0.6770    -1.1250 nu         1 1JX      -0.414600
     11 CA           1.9550    -0.0090    -1.3110 c3         1 1JX       0.057500
     12 CB           2.1910     1.4310    -1.7760 c3         1 1JX       0.012900
     13 H1           1.3630     0.0330     2.0290 hn         1 1JX       0.189500
     14 H2           5.7490     0.4110     3.3020 h4         1 1JX      -0.017900
     15 H3           7.0790    -0.2000     1.3250 ha         1 1JX       0.117000
     16 H4           5.9140    -0.7340    -0.8150 ha         1 1JX       0.120000
     17 H5           3.1310    -1.6660    -1.2180 hn         1 1JX       0.262800
     18 H6           1.3750    -0.5450    -2.0520 h1         1 1JX       0.063700
     19 H7           2.9980     1.4490    -2.4980 hc         1 1JX       0.015033
     20 H8           1.2880     1.8150    -2.2340 hc         1 1JX       0.015033
     21 H9           2.4540     2.0470    -0.9240 hc         1 1JX       0.015033
@<TRIPOS>BOND
     1     1     2 2   
     2     2     3 1   
     3     2    11 1   
     4     3     4 1   
     5     3    13 1   
     6     4     5 ar  
     7     4     9 ar  
     8     5     6 ar  
     9     6     7 ar  
    10     6    14 1   
    11     7     8 ar  
    12     7    15 1   
    13     8     9 ar  
    14     8    16 1   
    15     9    10 1   
    16    10    11 1   
    17    10    17 1   
    18    11    12 1   
    19    11    18 1   
    20    12    19 1   
    21    12    20 1   
    22    12    21 1   
@<TRIPOS>SUBSTRUCTURE
     1 1JX         1 TEMP              0 ****  ****    0 ROOT
