@<TRIPOS>MOLECULE
molecule
   77    80     1     0     0
SMALL
bcc


@<TRIPOS>ATOM
      1 OAF          0.0000     0.0000     0.0000 o          1 1JY      -0.520100
      2 CBI          1.2190     0.0000     0.0000 c          1 1JY       0.715100
      3 NBA          1.9110     0.0000     1.1550 nc         1 1JY      -0.685100
      4 CBL          3.2150    -0.0010     1.1740 cd         1 1JY       0.666200
      5 CAT          3.9100     0.0000     2.5110 c3         1 1JY       0.107100
      6 OAH          2.9350     0.0020     3.5550 oh         1 1JY      -0.554800
      7 NBB          3.9710    -0.0030     0.0620 na         1 1JY      -0.708600
      8 CBM          3.3830    -0.0040    -1.1860 ca         1 1JY       0.160600
      9 CBR          1.9780    -0.0080    -1.2630 ca         1 1JY      -0.227600
     10 CAO          1.3490    -0.0080    -2.5040 ca         1 1JY      -0.001000
     11 CAN          4.1310    -0.0070    -2.3540 ca         1 1JY      -0.190000
     12 CBK          3.4970    -0.0070    -3.5820 ca         1 1JY      -0.032300
     13 CBN          2.1100    -0.0050    -3.6570 ca         1 1JY      -0.138300
     14 CAV          4.0820    -0.0110    -4.9780 c3         1 1JY      -0.048100
     15 CAM          2.9260    -0.4520    -5.9000 c3         1 1JY      -0.096400
     16 CBO          1.6790    -0.0060    -5.1080 c3         1 1JY       0.295800
     17 NBU          1.2710     1.3400    -5.5180 nh         1 1JY      -0.724000
     18 CAU          2.1640     2.4780    -5.2890 c3         1 1JY       0.318900
     19 CAL          3.0410     2.6560    -6.4570 c1         1 1JY      -0.156100
     20 CAA          3.7240     2.8000    -7.4010 c1         1 1JY      -0.164500
     21 CBQ          0.0340     1.5370    -6.1240 ca         1 1JY       0.184600
     22 CAS         -0.3040     2.7940    -6.6190 ca         1 1JY      -0.216000
     23 CAQ         -1.5250     2.9920    -7.2190 ca         1 1JY      -0.048500
     24 CAR         -0.8600     0.4770    -6.2400 ca         1 1JY      -0.216000
     25 CAP         -2.0830     0.6690    -6.8390 ca         1 1JY      -0.048500
     26 CBP         -2.4290     1.9310    -7.3320 ca         1 1JY      -0.150600
     27 CBJ         -3.7400     2.1400    -7.9750 c          1 1JY       0.669700
     28 OAG         -4.0360     3.2370    -8.4070 o          1 1JY      -0.639100
     29 NBD         -4.6090     1.1160    -8.0820 ns         1 1JY      -0.524900
     30 CBT         -5.9100     1.3230    -8.7210 c3         1 1JY      -0.001300
     31 CBG         -6.8880     1.8560    -7.7050 c          1 1JY       0.891600
     32 OAD         -8.1530     2.1230    -8.0670 o          1 1JY      -0.853800
     33 OAK         -6.5330     2.0430    -6.5650 o          1 1JY      -0.853800
     34 CAZ         -6.4260    -0.0060    -9.2750 c3         1 1JY      -0.058400
     35 CAX         -5.4980    -0.4850   -10.3940 c3         1 1JY      -0.167400
     36 CBH         -6.0050    -1.7960   -10.9400 c          1 1JY       0.658100
     37 OAE         -7.0090    -2.2970   -10.4800 o          1 1JY      -0.638100
     38 N           -5.3420    -2.4100   -11.9400 ns         1 1JY      -0.541900
     39 CA          -5.8350    -3.6840   -12.4700 c3         1 1JY       0.002700
     40 C           -6.8820    -3.4190   -13.5210 c          1 1JY       0.892600
     41 O           -7.1870    -2.2820   -13.7990 o          1 1JY      -0.867300
     42 OXT         -7.4780    -4.4440   -14.1490 o          1 1JY      -0.867300
     43 CB          -4.6740    -4.4600   -13.0930 c3         1 1JY      -0.059400
     44 CG          -3.6700    -4.8380   -12.0030 c3         1 1JY      -0.184400
     45 CD          -2.5250    -5.6030   -12.6160 c          1 1JY       0.891600
     46 OE1         -2.5130    -5.8230   -13.8040 o          1 1JY      -0.882300
     47 OE2         -1.5180    -6.0390   -11.8420 o          1 1JY      -0.882300
     48 H1           4.5300     0.8840     2.5950 h1         1 1JY       0.031200
     49 H2           4.5290    -0.8850     2.5970 h1         1 1JY       0.031200
     50 H3           3.3690     0.0020     4.3920 ho         1 1JY       0.396000
     51 H4           4.9690    -0.0040     0.1410 hn         1 1JY       0.437800
     52 H5           0.2730    -0.1090    -2.5660 ha         1 1JY       0.177000
     53 H6           5.2140    -0.0150    -2.3030 ha         1 1JY       0.122000
     54 H7           4.9010    -0.7180    -5.0400 hc         1 1JY       0.055700
     55 H8           4.4160     0.9840    -5.2470 hc         1 1JY       0.055700
     56 H9           2.9310    -1.5270    -6.0330 hc         1 1JY       0.071700
     57 H10          2.9780     0.0610    -6.8530 hc         1 1JY       0.071700
     58 H11          0.8710    -0.7120    -5.2570 h1         1 1JY       0.099700
     59 H12          1.5750     3.3740    -5.1390 h1         1 1JY       0.064700
     60 H13          2.7680     2.2910    -4.4090 h1         1 1JY       0.064700
     61 H14          4.3890     2.7710    -8.2560 ha         1 1JY       0.158500
     62 H15          0.3890     3.6210    -6.5150 ha         1 1JY       0.120000
     63 H16         -1.7860     3.9690    -7.6070 ha         1 1JY       0.150500
     64 H17         -0.5940    -0.5000    -5.8530 ha         1 1JY       0.120000
     65 H18         -2.7970    -0.1450    -6.8870 ha         1 1JY       0.150500
     66 H19         -4.3800     0.2230    -7.6910 hn         1 1JY       0.301500
     67 H20         -5.8060     2.0360    -9.5300 h1         1 1JY       0.071700
     68 H22         -7.4260     0.1290    -9.6680 hc         1 1JY       0.070200
     69 H23         -6.4460    -0.7440    -8.4820 hc         1 1JY       0.070200
     70 H24         -5.4780     0.2530   -11.1860 hc         1 1JY       0.041700
     71 H25         -4.4980    -0.6210   -10.0000 hc         1 1JY       0.041700
     72 H26         -4.5380    -1.9760   -12.3480 hn         1 1JY       0.295500
     73 H27         -6.2690    -4.2660   -11.6670 h1         1 1JY       0.064700
     74 H29         -5.0520    -5.3600   -13.5630 hc         1 1JY       0.054200
     75 H30         -4.1840    -3.8430   -13.8370 hc         1 1JY       0.054200
     76 H31         -4.1590    -5.4550   -11.2590 hc         1 1JY       0.024200
     77 H32         -3.2920    -3.9380   -11.5330 hc         1 1JY       0.024200
@<TRIPOS>BOND
     1    41    40 1
     2    40    42 1
     3    40    39 1
     4    46    45 1
     5    44    43 1
     6    44    45 1
     7    43    39 1
     8    45    47 1
     9    39    38 1
    10    38    36 1
    11    36    37 2
    12    36    35 1
    13    35    34 1
    14    34    30 1
    15    33    31 1
    16    31    30 1
    17    31    32 1
    18    30    29 1
    19    29    27 1
    20    28    27 2
    21    27    26 1
    22    26    23 ar
    23    26    25 ar
    24    23    22 ar
    25    25    24 ar
    26    22    21 ar
    27    24    21 ar
    28    21    17 1
    29    17    18 1
    30    17    16 1
    31    15    16 1
    32    15    14 1
    33    18    19 1
    34    16    13 1
    35    14    12 1
    36    19    20 3
    37    13    12 ar
    38    13    10 ar
    39    12    11 ar
    40    10     9 ar
    41    11     8 ar
    42     9     8 ar
    43     9     2 1
    44     1     2 2
    45     8     7 1
    46     2     3 1
    47     6     5 1
    48     7     4 1
    49     3     4 2
    50     4     5 1
    51     5    48 1
    52     5    49 1
    53     6    50 1
    54     7    51 1
    55    10    52 1
    56    11    53 1
    57    14    54 1
    58    14    55 1
    59    15    56 1
    60    15    57 1
    61    16    58 1
    62    18    59 1
    63    18    60 1
    64    20    61 1
    65    22    62 1
    66    23    63 1
    67    24    64 1
    68    25    65 1
    69    29    66 1
    70    30    67 1
    71    34    68 1
    72    34    69 1
    73    35    70 1
    74    35    71 1
    75    38    72 1
    76    39    73 1
    77    43    74 1
    78    43    75 1
    79    44    76 1
    80    44    77 1
@<TRIPOS>SUBSTRUCTURE
     1 1JY         1 TEMP              0 ****  ****    0 ROOT
