@<TRIPOS>MOLECULE
1JY
   79    82     1     0     0
SMALL
bcc


@<TRIPOS>ATOM
      1 OAF          0.5190    -1.9130    -0.0990 o          1 1JY      -0.535100
      2 CBI          1.6790    -1.4830    -0.0030 c          1 1JY       0.707100
      3 NBA          2.4030    -1.6520     1.2080 nc         1 1JY      -0.684100
      4 CBL          3.6480    -1.2410     1.2780 cd         1 1JY       0.620200
      5 CAT          4.4300    -1.4580     2.5820 c3         1 1JY       0.085100
      6 OAH          5.3100    -0.3890     2.8450 oh         1 1JY      -0.598800
      7 NBB          4.3590    -0.6460     0.2320 na         1 1JY      -0.718600
      8 CBM          3.7110    -0.3870    -0.9760 ca         1 1JY       0.186600
      9 CBR          2.3580    -0.7870    -1.1260 ca         1 1JY      -0.221600
     10 CAO          1.6710    -0.5260    -2.3230 ca         1 1JY      -0.011000
     11 CAN          4.3880     0.2530    -2.0480 ca         1 1JY      -0.184000
     12 CBK          3.6930     0.4830    -3.2170 ca         1 1JY      -0.020300
     13 CBN          2.3350     0.1070    -3.3540 ca         1 1JY      -0.161300
     14 CAV          4.2050     1.1200    -4.4660 c3         1 1JY      -0.048100
     15 CAM          3.0160     1.1630    -5.4310 c3         1 1JY      -0.089400
     16 CBO          1.8230     0.4300    -4.7390 c3         1 1JY       0.274800
     17 NBU          0.5540     1.1280    -4.8450 nh         1 1JY      -0.653000
     18 CAU         -0.5630     0.3190    -5.3040 c3         1 1JY       0.285900
     19 CAL         -1.2310    -0.4800    -4.3010 c1         1 1JY      -0.207100
     20 CAA         -1.7900    -1.1470    -3.4800 c1         1 1JY      -0.099500
     21 CBQ          0.2840     2.2700    -4.0800 ca         1 1JY       0.221600
     22 CAS         -1.0420     2.7510    -3.9130 ca         1 1JY      -0.207000
     23 CAQ         -1.3010     3.9630    -3.2880 ca         1 1JY      -0.036000
     24 CAR          1.3290     3.0430    -3.5060 ca         1 1JY      -0.207000
     25 CAP          1.0630     4.2420    -2.8660 ca         1 1JY      -0.036000
     26 CBP         -0.2480     4.7310    -2.7760 ca         1 1JY      -0.237600
     27 CBJ         -0.4550     6.0190    -2.1030 c          1 1JY       0.585700
     28 OAG          0.2040     6.4430    -1.1530 o          1 1JY      -0.485100
     29 NBD         -1.5040     6.9130    -2.6630 ny         1 1JY      -0.661800
     30 CBT         -2.5750     7.2820    -1.6780 c3         1 1JY      -0.035500
     31 CBG         -3.8200     6.3100    -1.8350 c          1 1JY       0.923600
     32 OAD         -3.9020     5.6890    -2.9330 o          1 1JY      -0.785800
     33 OAK         -4.5910     6.2560    -0.8590 o          1 1JY      -0.785800
     34 CAZ         -3.0400     8.7240    -1.8560 c3         1 1JY      -0.078400
     35 CAX         -3.6010     9.0270    -3.2320 c3         1 1JY      -0.173400
     36 CBH         -2.5760     9.7130    -4.1240 c          1 1JY       0.638100
     37 OAE         -1.4290     9.1910    -4.2780 o          1 1JY      -0.747100
     38 N           -2.9030    10.8780    -4.7260 ns         1 1JY      -0.494900
     39 CA          -2.0800    11.5820    -5.6860 c3         1 1JY      -0.061300
     40 C           -2.8680    12.7990    -6.3190 c          1 1JY       0.918600
     41 O           -2.4180    13.2230    -7.4120 o          1 1JY      -0.813800
     42 OXT         -3.8600    13.2510    -5.6860 o          1 1JY      -0.813800
     43 CB          -0.7500    12.1160    -5.1450 c3         1 1JY      -0.082400
     44 CG          -0.9080    13.1030    -4.0060 c3         1 1JY      -0.178400
     45 CD          -0.2960    12.6800    -2.7090 c          1 1JY       0.631100
     46 OE1          0.2380    13.4240    -1.8790 o          1 1JY      -0.537000
     47 OE2         -0.3070    11.3730    -2.3040 oh         1 1JY      -0.613100
     48 H1           3.7170    -1.6190     3.4340 h1         1 1JY       0.086700
     49 H2           5.0900    -2.3600     2.4570 h1         1 1JY       0.086700
     50 H3           4.7790     0.3580     3.1520 ho         1 1JY       0.416000
     51 H4           5.2820    -0.3110     0.3900 hn         1 1JY       0.464800
     52 H5           0.6130    -0.8320    -2.4130 ha         1 1JY       0.175000
     53 H6           5.4390     0.5590    -1.9470 ha         1 1JY       0.142000
     54 H7           5.0460     0.5180    -4.8960 hc         1 1JY       0.062700
     55 H8           4.5940     2.1490    -4.2590 hc         1 1JY       0.062700
     56 H9           3.2620     0.6340    -6.3840 hc         1 1JY       0.062200
     57 H10          2.7570     2.2200    -5.6890 hc         1 1JY       0.062200
     58 H11          1.6970    -0.5640    -5.2720 h1         1 1JY       0.068700
     59 H12         -1.3160     1.0070    -5.7950 h1         1 1JY       0.075200
     60 H13         -0.1800    -0.3720    -6.1170 h1         1 1JY       0.075200
     61 H14         -2.2870    -1.7310    -2.7450 ha         1 1JY       0.175500
     62 H15         -1.9080     2.1650    -4.2600 ha         1 1JY       0.148500
     63 H16         -2.3580     4.2920    -3.1790 ha         1 1JY       0.178000
     64 H17          2.3710     2.6920    -3.5460 ha         1 1JY       0.148500
     65 H18          1.8890     4.8210    -2.4220 ha         1 1JY       0.178000
     66 H19         -1.0540     7.7780    -3.0190 hn         1 1JY       0.483300
     67 H20         -2.1570     7.1580    -0.6400 hx         1 1JY       0.098700
     68 H22         -3.8500     8.8700    -1.0880 hc         1 1JY       0.076200
     69 H23         -2.2040     9.4360    -1.6150 hc         1 1JY       0.076200
     70 H24         -3.9190     8.0750    -3.7430 hc         1 1JY       0.088200
     71 H25         -4.5220     9.6580    -3.1180 hc         1 1JY       0.088200
     72 H26         -0.6840    10.8110    -2.9990 ho         1 1JY       0.444000
     73 H27         -1.8310    10.8640    -6.5220 h1         1 1JY       0.060700
     74 H29         -0.2650    12.6400    -6.0140 hc         1 1JY       0.057200
     75 H30         -0.0840    11.2610    -4.8550 hc         1 1JY       0.057200
     76 H31         -2.0020    13.3130    -3.8270 hc         1 1JY       0.098200
     77 H32         -0.4430    14.0850    -4.2910 hc         1 1JY       0.098200
     78 HBD2        -1.9890     6.4450    -3.4530 hn         1 1JY       0.483300
     79 H21         -3.8000    11.3000    -4.5690 hn         1 1JY       0.348500
@<TRIPOS>BOND
     1     1     2 2   
     2     2     3 1   
     3     2     9 1   
     4     3     4 2   
     5     4     5 1   
     6     4     7 1   
     7     5     6 1   
     8     5    48 1   
     9     5    49 1   
    10     6    50 1   
    11     7     8 1   
    12     7    51 1   
    13     8     9 ar  
    14     8    11 ar  
    15     9    10 ar  
    16    10    13 ar  
    17    10    52 1   
    18    11    12 ar  
    19    11    53 1   
    20    12    13 ar  
    21    12    14 1   
    22    13    16 1   
    23    14    15 1   
    24    14    54 1   
    25    14    55 1   
    26    15    16 1   
    27    15    56 1   
    28    15    57 1   
    29    16    17 1   
    30    16    58 1   
    31    17    18 1   
    32    17    21 1   
    33    18    19 1   
    34    18    59 1   
    35    18    60 1   
    36    19    20 3   
    37    20    61 1   
    38    21    22 ar  
    39    21    24 ar  
    40    22    23 ar  
    41    22    62 1   
    42    23    26 ar  
    43    23    63 1   
    44    24    25 ar  
    45    24    64 1   
    46    25    26 ar  
    47    25    65 1   
    48    26    27 1   
    49    27    28 2   
    50    27    29 1   
    51    29    30 1   
    52    29    66 1   
    53    29    78 1   
    54    30    31 1   
    55    30    34 1   
    56    30    67 1   
    57    31    32 1   
    58    31    33 1   
    59    34    35 1   
    60    34    68 1   
    61    34    69 1   
    62    35    36 1   
    63    35    70 1   
    64    35    71 1   
    65    36    37 2   
    66    36    38 1   
    67    38    39 1   
    68    38    79 1   
    69    39    40 1   
    70    39    43 1   
    71    39    73 1   
    72    40    41 1   
    73    40    42 1   
    74    43    44 1   
    75    43    74 1   
    76    43    75 1   
    77    44    45 1   
    78    44    76 1   
    79    44    77 1   
    80    45    46 2   
    81    45    47 1   
    82    47    72 1   
@<TRIPOS>SUBSTRUCTURE
     1 1JY         1 TEMP              0 ****  ****    0 ROOT
