@<TRIPOS>MOLECULE
1JY
   77    80     1     0     0
SMALL
bcc


@<TRIPOS>ATOM
      1 OAF          0.0000     0.0000     0.0000 o          1 1JY      -0.557100
      2 CBI          1.2190     0.0000     0.0000 c          1 1JY       0.718100
      3 NBA          1.9110     0.0000     1.1550 nc         1 1JY      -0.590100
      4 CBL          3.2150    -0.0010     1.1740 cd         1 1JY       0.433200
      5 CAT          3.9100     0.0000     2.5110 c3         1 1JY       0.195100
      6 OAH          2.9350     0.0020     3.5550 oh         1 1JY      -0.536800
      7 NBB          3.9710    -0.0030     0.0620 na         1 1JY      -0.206600
      8 CBM          3.3830    -0.0040    -1.1860 ca         1 1JY      -0.007400
      9 CBR          1.9780    -0.0080    -1.2630 ca         1 1JY      -0.226600
     10 CAO          1.3490    -0.0080    -2.5040 ca         1 1JY       0.042000
     11 CAN          4.1310    -0.0070    -2.3540 ca         1 1JY      -0.158000
     12 CBK          3.4970    -0.0070    -3.5820 ca         1 1JY      -0.031300
     13 CBN          2.1100    -0.0050    -3.6570 ca         1 1JY      -0.144300
     14 CAV          4.0820    -0.0110    -4.9780 c3         1 1JY       0.014900
     15 CAM          2.9260    -0.4520    -5.9000 c3         1 1JY      -0.048400
     16 CBO          1.6790    -0.0060    -5.1080 c3         1 1JY       0.207800
     17 NBU          1.2710     1.3400    -5.5180 nh         1 1JY      -0.378000
     18 CAU          2.1640     2.4780    -5.2890 c3         1 1JY       0.285900
     19 CAL          3.0410     2.6560    -6.4570 c1         1 1JY      -0.173100
     20 CAA          3.7240     2.8000    -7.4010 c1         1 1JY      -0.133500
     21 CBQ          0.0340     1.5370    -6.1240 ca         1 1JY       0.051600
     22 CAS         -0.3040     2.7940    -6.6190 ca         1 1JY      -0.201000
     23 CAQ         -1.5250     2.9920    -7.2190 ca         1 1JY      -0.019500
     24 CAR         -0.8600     0.4770    -6.2400 ca         1 1JY      -0.201000
     25 CAP         -2.0830     0.6690    -6.8390 ca         1 1JY      -0.019500
     26 CBP         -2.4290     1.9310    -7.3320 ca         1 1JY      -0.150600
     27 CBJ         -3.7400     2.1400    -7.9750 c          1 1JY       0.577700
     28 OAG         -4.0360     3.2370    -8.4070 o          1 1JY      -0.685100
     29 NBD         -4.6090     1.1160    -8.0820 ns         1 1JY      -0.103900
     30 CBT         -5.9100     1.3230    -8.7210 c3         1 1JY      -0.110300
     31 CBG         -6.8880     1.8560    -7.7050 c          1 1JY       0.985600
     32 OAD         -8.1530     2.1230    -8.0670 o          1 1JY      -0.903800
     33 OAK         -6.5330     2.0430    -6.5650 o          1 1JY      -0.903800
     34 CAZ         -6.4260    -0.0060    -9.2750 c3         1 1JY      -0.009400
     35 CAX         -5.4980    -0.4850   -10.3940 c3         1 1JY      -0.115400
     36 CBH         -6.0050    -1.7960   -10.9400 c          1 1JY       0.565100
     37 OAE         -7.0090    -2.2970   -10.4800 o          1 1JY      -0.678100
     38 N           -5.3420    -2.4100   -11.9400 ns         1 1JY      -0.131900
     39 CA          -5.8350    -3.6840   -12.4700 c3         1 1JY      -0.104300
     40 C           -6.8820    -3.4190   -13.5210 c          1 1JY       0.987600
     41 O           -7.1870    -2.2820   -13.7990 o          1 1JY      -0.915800
     42 OXT         -7.4780    -4.4440   -14.1490 o          1 1JY      -0.915800
     43 CB          -4.6740    -4.4600   -13.0930 c3         1 1JY      -0.012400
     44 CG          -3.6700    -4.8380   -12.0030 c3         1 1JY      -0.141400
     45 CD          -2.5250    -5.6030   -12.6160 c          1 1JY       0.985600
     46 OE1         -2.5130    -5.8230   -13.8040 o          1 1JY      -0.929300
     47 OE2         -1.5180    -6.0390   -11.8420 o          1 1JY      -0.929300
     48 H1           4.5300     0.8840     2.5950 h1         1 1JY      -0.013800
     49 H2           4.5290    -0.8850     2.5970 h1         1 1JY      -0.013800
     50 H3           3.3690     0.0020     4.3920 ho         1 1JY       0.375000
     51 H4           4.9690    -0.0040     0.1410 hn         1 1JY       0.272800
     52 H5           0.2730    -0.1090    -2.5660 ha         1 1JY       0.141000
     53 H6           5.2140    -0.0150    -2.3030 ha         1 1JY       0.102000
     54 H7           4.9010    -0.7180    -5.0400 hc         1 1JY       0.026200
     55 H8           4.4160     0.9840    -5.2470 hc         1 1JY       0.026200
     56 H9           2.9310    -1.5270    -6.0330 hc         1 1JY       0.040200
     57 H10          2.9780     0.0610    -6.8530 hc         1 1JY       0.040200
     58 H11          0.8710    -0.7120    -5.2570 h1         1 1JY       0.075700
     59 H12          1.5750     3.3740    -5.1390 h1         1 1JY       0.032700
     60 H13          2.7680     2.2910    -4.4090 h1         1 1JY       0.032700
     61 H14          4.3890     2.7710    -8.2560 ha         1 1JY       0.136500
     62 H15          0.3890     3.6210    -6.5150 ha         1 1JY       0.106000
     63 H16         -1.7860     3.9690    -7.6070 ha         1 1JY       0.120500
     64 H17         -0.5940    -0.5000    -5.8530 ha         1 1JY       0.106000
     65 H18         -2.7970    -0.1450    -6.8870 ha         1 1JY       0.120500
     66 H19         -4.3800     0.2230    -7.6910 hn         1 1JY       0.160500
     67 H20         -5.8060     2.0360    -9.5300 h1         1 1JY       0.054700
     68 H22         -7.4260     0.1290    -9.6680 hc         1 1JY       0.044200
     69 H23         -6.4460    -0.7440    -8.4820 hc         1 1JY       0.044200
     70 H24         -5.4780     0.2530   -11.1860 hc         1 1JY       0.012200
     71 H25         -4.4980    -0.6210   -10.0000 hc         1 1JY       0.012200
     72 H26         -4.5380    -1.9760   -12.3480 hn         1 1JY       0.153500
     73 H27         -6.2690    -4.2660   -11.6670 h1         1 1JY       0.049700
     74 H29         -5.0520    -5.3600   -13.5630 hc         1 1JY       0.031200
     75 H30         -4.1840    -3.8430   -13.8370 hc         1 1JY       0.031200
     76 H31         -4.1590    -5.4550   -11.2590 hc         1 1JY       0.002200
     77 H32         -3.2920    -3.9380   -11.5330 hc         1 1JY       0.002200
@<TRIPOS>BOND
     1     1     2 2   
     2     2     3 1   
     3     2     9 1   
     4     3     4 2   
     5     4     5 1   
     6     4     7 1   
     7     5     6 1   
     8     5    48 1   
     9     5    49 1   
    10     6    50 1   
    11     7     8 1   
    12     7    51 1   
    13     8     9 ar  
    14     8    11 ar  
    15     9    10 ar  
    16    10    13 ar  
    17    10    52 1   
    18    11    12 ar  
    19    11    53 1   
    20    12    13 ar  
    21    12    14 1   
    22    13    16 1   
    23    14    15 1   
    24    14    54 1   
    25    14    55 1   
    26    15    16 1   
    27    15    56 1   
    28    15    57 1   
    29    16    17 1   
    30    16    58 1   
    31    17    18 1   
    32    17    21 1   
    33    18    19 1   
    34    18    59 1   
    35    18    60 1   
    36    19    20 3   
    37    20    61 1   
    38    21    22 ar  
    39    21    24 ar  
    40    22    23 ar  
    41    22    62 1   
    42    23    26 ar  
    43    23    63 1   
    44    24    25 ar  
    45    24    64 1   
    46    25    26 ar  
    47    25    65 1   
    48    26    27 1   
    49    27    28 2   
    50    27    29 1   
    51    29    30 1   
    52    29    66 1   
    53    30    31 1   
    54    30    34 1   
    55    30    67 1   
    56    31    32 1   
    57    31    33 1   
    58    34    35 1   
    59    34    68 1   
    60    34    69 1   
    61    35    36 1   
    62    35    70 1   
    63    35    71 1   
    64    36    37 2   
    65    36    38 1   
    66    38    39 1   
    67    38    72 1   
    68    39    40 1   
    69    39    43 1   
    70    39    73 1   
    71    40    41 1   
    72    40    42 1   
    73    43    44 1   
    74    43    74 1   
    75    43    75 1   
    76    44    45 1   
    77    44    76 1   
    78    44    77 1   
    79    45    46 1   
    80    45    47 1   
@<TRIPOS>SUBSTRUCTURE
     1 1JY         1 TEMP              0 ****  ****    0 ROOT
