@<TRIPOS>MOLECULE
1JZ
   24    24     1     0     0
SMALL
bcc


@<TRIPOS>ATOM
      1 C10          0.0000     0.0000     0.0000 c2         1 1JZ       0.225100
      2 C12          2.2490    -0.9770    -3.4350 ca         1 1JZ      -0.029000
      3 C8           3.2980     0.5310    -1.3630 ca         1 1JZ      -0.133000
      4 C7           3.9870     0.4200    -2.5560 ca         1 1JZ      -0.029000
      5 O2           5.0930    -1.5800    -4.8300 oh         1 1JZ      -0.586800
      6 C6           3.4630    -0.3340    -3.5900 ca         1 1JZ      -0.076300
      7 C9           2.0760    -0.1100    -1.2070 ca         1 1JZ      -0.052400
      8 C11          1.5540    -0.8660    -2.2480 ca         1 1JZ      -0.133000
      9 N3           1.3760     0.0000     0.0000 nu         1 1JZ      -0.271600
     10 N4          -0.6870     0.0000     1.1910 nz         1 1JZ       0.195400
     11 N5          -0.6510     0.0060    -1.1290 n2         1 1JZ      -0.655100
     12 H12          1.8420    -1.5670    -4.2470 ha         1 1JZ       0.125500
     13 H8           3.7090     1.1220    -0.5530 ha         1 1JZ       0.119000
     14 H7           4.9390     0.9210    -2.6800 ha         1 1JZ       0.125500
     15 H5           4.7910     0.4410    -5.1060 h1         1 1JZ      -0.002300
     16 H5A          3.4820    -0.6060    -5.6710 h1         1 1JZ      -0.002300
     17 HO2          5.5650    -1.6550    -5.6430 ho         1 1JZ       0.406000
     18 H11          0.6020    -1.3690    -2.1280 ha         1 1JZ       0.119000
     19 HN3          1.8760     0.0340     0.8660 hn         1 1JZ       0.292800
     20 HN4         -0.5130     0.8580     1.6770 hn         1 1JZ       0.221800
     21 HN4A        -1.6670    -0.0880     1.0110 hn         1 1JZ       0.221800
     22 HN5         -0.1520     0.0080    -1.9960 hn         1 1JZ       0.419400
     23 H43         -0.3800    -0.7700     1.7530 hn         1 1JZ       0.221800
     24 C5           4.2170    -0.4520    -4.8900 c3         1 1JZ       0.277700
@<TRIPOS>BOND
     1     1     9 1   
     2     1    10 1   
     3     1    11 2   
     4     2     6 ar  
     5     2     8 ar  
     6     2    12 1   
     7     3     4 ar  
     8     3     7 ar  
     9     3    13 1   
    10     4     6 ar  
    11     4    14 1   
    12     5    17 1   
    13     5    24 1   
    14     6    24 1   
    15     7     8 ar  
    16     7     9 1   
    17     8    18 1   
    18     9    19 1   
    19    10    20 1   
    20    10    21 1   
    21    10    23 1   
    22    11    22 1   
    23    15    24 1   
    24    16    24 1   
@<TRIPOS>SUBSTRUCTURE
     1 1JZ         1 TEMP              0 ****  ****    0 ROOT
