@<TRIPOS>MOLECULE
molecule
   24    24     1     0     0
SMALL
bcc


@<TRIPOS>ATOM
      1 C10          0.0000     0.0000     0.0000 c2         1 1JZ       0.683100
      2 C12          2.2490    -0.9770    -3.4350 ca         1 1JZ      -0.082000
      3 C8           3.2980     0.5310    -1.3630 ca         1 1JZ      -0.127000
      4 C7           3.9870     0.4200    -2.5560 ca         1 1JZ      -0.082000
      5 O2           5.0930    -1.5800    -4.8300 oh         1 1JZ      -0.602800
      6 C6           3.4630    -0.3340    -3.5900 ca         1 1JZ      -0.063300
      7 C9           2.0760    -0.1100    -1.2070 ca         1 1JZ       0.110600
      8 C11          1.5540    -0.8660    -2.2480 ca         1 1JZ      -0.127000
      9 N3           1.3760     0.0000     0.0000 nu         1 1JZ      -0.703600
     10 N4          -0.6870     0.0000     1.1910 nz         1 1JZ      -0.807600
     11 N5          -0.6510     0.0060    -1.1290 n2         1 1JZ      -0.766100
     12 H12          1.8420    -1.5670    -4.2470 ha         1 1JZ       0.155000
     13 H8           3.7090     1.1220    -0.5530 ha         1 1JZ       0.142000
     14 H7           4.9390     0.9210    -2.6800 ha         1 1JZ       0.155000
     15 H5           3.4820    -0.6060    -5.6710 h1         1 1JZ       0.036700
     16 H5A          4.7910     0.4410    -5.1060 h1         1 1JZ       0.036700
     17 HO2          5.5630    -1.6560    -5.6440 ho         1 1JZ       0.416000
     18 H11          0.6020    -1.3690    -2.1280 ha         1 1JZ       0.142000
     19 HN3          1.8760     0.0510     0.8650 hn         1 1JZ       0.461800
     20 HN4         -1.5620    -0.4700     1.0720 hn         1 1JZ       0.467467
     21 HN4A        -0.1460    -0.4730     1.8880 hn         1 1JZ       0.467467
     22 HN5         -1.6520     0.0080    -1.1300 hn         1 1JZ       0.435400
     23 H43         -0.8520     0.9440     1.4810 hn         1 1JZ       0.467467
     24 C5           4.2170    -0.4520    -4.8900 c3         1 1JZ       0.183700
@<TRIPOS>BOND
     1    11     1 2   
     2    10     1 1   
     3     1     9 1   
     4     8     2 ar  
     5     6     2 ar  
     6     2    12 1   
     7     3     7 ar  
     8     3     4 ar  
     9     3    13 1   
    10     4     6 ar  
    11     4    14 1   
    12     6    24 1   
    13    24     5 1   
    14    24    15 1   
    15    24    16 1   
    16     5    17 1   
    17     9     7 1   
    18     7     8 ar  
    19     8    18 1   
    20     9    19 1   
    21    10    20 1   
    22    10    21 1   
    23    11    22 1   
    24    23    10 1   
@<TRIPOS>SUBSTRUCTURE
     1 1JZ         1 TEMP              0 ****  ****    0 ROOT
