@<TRIPOS>MOLECULE
1JZ
   24    24     1     0     0
SMALL
bcc


@<TRIPOS>ATOM
      1 C10         -0.0700    -0.1010     0.0190 c2         1 1JZ       0.740100
      2 C12          4.2490    -0.2310     2.0750 ca         1 1JZ      -0.095000
      3 C8           1.8450    -1.5920     1.6590 ca         1 1JZ      -0.142000
      4 C7           2.7060    -1.9950     2.6720 ca         1 1JZ      -0.095000
      5 O2           5.7330    -0.7380     4.2860 oh         1 1JZ      -0.600800
      6 C6           3.9140    -1.3180     2.8880 ca         1 1JZ      -0.053300
      7 C9           2.1780    -0.4880     0.8470 ca         1 1JZ       0.011600
      8 C11          3.3930     0.1900     1.0600 ca         1 1JZ      -0.142000
      9 N3           1.3240    -0.0330    -0.2070 nu         1 1JZ      -0.666600
     10 N4          -0.4440     0.6040     1.3530 nz         1 1JZ      -0.887600
     11 N5          -0.9400    -0.5850    -0.7840 n2         1 1JZ      -0.739100
     12 C5           4.8320    -1.7880     3.9700 c3         1 1JZ       0.166700
     13 H12          5.2030     0.2990     2.2470 ha         1 1JZ       0.170000
     14 H8           0.9240    -2.1680     1.4740 ha         1 1JZ       0.149000
     15 H7           2.4430    -2.8610     3.3000 ha         1 1JZ       0.170000
     16 H5           5.3990    -2.6920     3.6070 h1         1 1JZ       0.051200
     17 H5A          4.2430    -2.0700     4.8860 h1         1 1JZ       0.051200
     18 HO2          6.3760    -1.1040     4.9060 ho         1 1JZ       0.424000
     19 H11          3.6830     1.0420     0.4230 ha         1 1JZ       0.149000
     20 HN3          1.6010    -0.3490    -1.1230 hn         1 1JZ       0.475800
     21 HN4         -1.4470     0.5410     1.5320 hn         1 1JZ       0.464467
     22 HN4A        -0.1690     1.5900     1.3020 hn         1 1JZ       0.464467
     23 HN5         -1.9200    -0.4640    -0.6590 hn         1 1JZ       0.464400
     24 H43          0.0690     0.1570     2.1230 hn         1 1JZ       0.464467
@<TRIPOS>BOND
     1     1     9 1   
     2     1    10 1   
     3     1    11 2   
     4     2     6 ar  
     5     2     8 ar  
     6     2    13 1   
     7     3     4 ar  
     8     3     7 ar  
     9     3    14 1   
    10     4     6 ar  
    11     4    15 1   
    12     5    12 1   
    13     5    18 1   
    14     6    12 1   
    15     7     8 ar  
    16     7     9 1   
    17     8    19 1   
    18     9    20 1   
    19    10    21 1   
    20    10    22 1   
    21    10    24 1   
    22    11    23 1   
    23    12    16 1   
    24    12    17 1   
@<TRIPOS>SUBSTRUCTURE
     1 1JZ         1 TEMP              0 ****  ****    0 ROOT
