@<TRIPOS>MOLECULE
1K0
   49    51     1     0     0
SMALL
bcc


@<TRIPOS>ATOM
      1 O1          -0.2060     0.7190    -0.1220 os         1 1K0      -0.324900
      2 C1           1.1960     0.9650    -0.1560 c3         1 1K0       0.111700
      3 C2          -0.7510     0.4390     1.1130 ca         1 1K0       0.198100
      4 C3          -2.1420     0.2140     1.0890 ca         1 1K0      -0.271000
      5 C4          -2.7950    -0.0770     2.2840 ca         1 1K0       0.225100
      6 N1          -1.9280    -0.4930     5.9150 ns         1 1K0      -0.499400
      7 C5          -4.8850    -0.2430     1.1570 c3         1 1K0       0.107700
      8 O2          -4.1460    -0.3120     2.3730 os         1 1K0      -0.288900
      9 C6          -2.0810    -0.1480     3.5060 ca         1 1K0      -0.253600
     10 O3           2.4650    -0.4630    10.5980 os         1 1K0      -0.347900
     11 N2           0.0740     0.0230     4.6870 nc         1 1K0      -0.633100
     12 C7          -2.7570    -0.4530     4.7730 c          1 1K0       0.721100
     13 C8          -0.5570    -0.2520     5.8190 cd         1 1K0       0.559500
     14 O4           1.5920     0.1650    13.4790 oh         1 1K0      -0.604800
     15 O5          -3.9680    -0.6760     4.9330 o          1 1K0      -0.603500
     16 C9           0.2190    -0.3210     7.0900 ca         1 1K0      -0.151900
     17 C18         -0.2520     0.3330     8.2310 ca         1 1K0      -0.095500
     18 C16          0.4650     0.2730     9.4300 ca         1 1K0      -0.085800
     19 C17         -0.0490     0.9830    10.6240 c3         1 1K0      -0.057800
     20 C13          1.6670    -0.4590     9.4610 ca         1 1K0       0.110100
     21 C14          1.9680    -1.3020    11.6550 c3         1 1K0       0.123400
     22 C15          2.5460    -0.7430    12.9510 c3         1 1K0       0.122400
     23 C11          2.1550    -1.1130     8.3130 ca         1 1K0      -0.085800
     24 C12          3.4370    -1.8530     8.3460 c3         1 1K0      -0.057800
     25 C10          1.4210    -1.0320     7.1260 ca         1 1K0      -0.095500
     26 C19         -0.6770     0.0810     3.5070 ca         1 1K0       0.251400
     27 C20         -0.0140     0.3770     2.2930 ca         1 1K0      -0.245000
     28 H1           1.4550     1.8540     0.4680 h1         1 1K0       0.049033
     29 H2           1.3950     1.1690    -1.2390 h1         1 1K0       0.049033
     30 H3           1.7620     0.0650     0.1870 h1         1 1K0       0.049033
     31 H4          -2.6740     0.2750     0.1310 ha         1 1K0       0.160000
     32 H5          -2.3350    -0.7040     6.7990 hn         1 1K0       0.337500
     33 H6          -4.5260    -1.0140     0.4330 h1         1 1K0       0.049700
     34 H7          -5.9330    -0.4650     1.4870 h1         1 1K0       0.049700
     35 H8          -4.8180     0.7790     0.7120 h1         1 1K0       0.049700
     36 H9           2.0560     0.7240    14.1110 ho         1 1K0       0.406000
     37 H10         -1.1820     0.9220     8.1970 ha         1 1K0       0.148500
     38 H11          0.7280     1.0410    11.4290 hc         1 1K0       0.053533
     39 H12         -0.3600     2.0220    10.3530 hc         1 1K0       0.053533
     40 H13         -0.9410     0.4460    11.0360 hc         1 1K0       0.053533
     41 H14          0.8480    -1.2930    11.6820 h1         1 1K0       0.054700
     42 H15          2.3470    -2.3410    11.4730 h1         1 1K0       0.054700
     43 H16          3.5220    -0.2290    12.7520 h1         1 1K0       0.042200
     44 H17          2.7010    -1.5800    13.6840 h1         1 1K0       0.042200
     45 H18          4.2780    -1.1640     8.0810 hc         1 1K0       0.053533
     46 H19          3.6320    -2.2580     9.3710 hc         1 1K0       0.053533
     47 H20          3.4290    -2.7000     7.6170 hc         1 1K0       0.053533
     48 H21          1.7980    -1.5300     6.2190 ha         1 1K0       0.148500
     49 H22          1.0710     0.5550     2.3010 ha         1 1K0       0.159000
@<TRIPOS>BOND
     1     1     2 1   
     2     1     3 1   
     3     2    28 1   
     4     2    29 1   
     5     2    30 1   
     6     3     4 ar  
     7     3    27 ar  
     8     4     5 ar  
     9     4    31 1   
    10     5     8 1   
    11     5     9 ar  
    12     6    12 1   
    13     6    13 1   
    14     6    32 1   
    15     7     8 1   
    16     7    33 1   
    17     7    34 1   
    18     7    35 1   
    19     9    12 1   
    20     9    26 ar  
    21    10    20 1   
    22    10    21 1   
    23    11    13 2   
    24    11    26 1   
    25    12    15 2   
    26    13    16 1   
    27    14    22 1   
    28    14    36 1   
    29    16    17 ar  
    30    16    25 ar  
    31    17    18 ar  
    32    17    37 1   
    33    18    19 1   
    34    18    20 ar  
    35    19    38 1   
    36    19    39 1   
    37    19    40 1   
    38    20    23 ar  
    39    21    22 1   
    40    21    41 1   
    41    21    42 1   
    42    22    43 1   
    43    22    44 1   
    44    23    24 1   
    45    23    25 ar  
    46    24    45 1   
    47    24    46 1   
    48    24    47 1   
    49    25    48 1   
    50    26    27 ar  
    51    27    49 1   
@<TRIPOS>SUBSTRUCTURE
     1 1K0         1 TEMP              0 ****  ****    0 ROOT
