@<TRIPOS>MOLECULE
molecule
   49    51     1     0     0
SMALL
bcc


@<TRIPOS>ATOM
      1 O1           0.0000     0.0000     0.0000 os         1 1K0      -0.321900
      2 C1           1.4290     0.0000     0.0000 c3         1 1K0       0.128700
      3 C2          -0.6170     0.0000     1.2090 ca         1 1K0       0.214100
      4 C3           0.1480     0.0040     2.3710 ca         1 1K0      -0.350000
      5 C4          -0.4600     0.0040     3.6120 ca         1 1K0       0.251100
      6 N1          -3.9090    -0.0060     4.9640 ns         1 1K0      -0.477400
      7 C5           1.7100     0.0160     4.5790 c3         1 1K0       0.123700
      8 O2           0.2900     0.0090     4.7430 os         1 1K0      -0.285900
      9 C6          -1.8580    -0.0010     3.6940 ca         1 1K0      -0.277600
     10 O3         -10.1910    -0.0320     3.8950 os         1 1K0      -0.342900
     11 N2          -3.9880    -0.0110     2.6120 nc         1 1K0      -0.656100
     12 C7          -2.5560    -0.0010     4.9830 c          1 1K0       0.716100
     13 C8          -4.5870    -0.0110     3.7750 cd         1 1K0       0.573500
     14 O4         -12.7780    -0.4890     2.7300 oh         1 1K0      -0.600800
     15 O5          -1.9400     0.0030     6.0330 o          1 1K0      -0.608500
     16 C9          -6.0640    -0.0160     3.8070 ca         1 1K0      -0.155900
     17 C18         -6.7890    -0.0210     2.6130 ca         1 1K0      -0.085500
     18 C16         -8.1670    -0.0250     2.6480 ca         1 1K0      -0.101300
     19 C17         -8.9510    -0.0310     1.3610 c3         1 1K0      -0.046300
     20 C13         -8.8330    -0.0260     3.8660 ca         1 1K0       0.131100
     21 C14        -10.8350    -1.3070     3.9110 c3         1 1K0       0.150400
     22 C15        -12.3520    -1.1120     3.9440 c3         1 1K0       0.142400
     23 C11         -8.1150    -0.0210     5.0560 ca         1 1K0      -0.101300
     24 C12         -8.8440    -0.0210     6.3750 c3         1 1K0      -0.046300
     25 C10         -6.7380    -0.0220     5.0310 ca         1 1K0      -0.085500
     26 C19         -2.6370    -0.0070     2.5120 ca         1 1K0       0.268400
     27 C20         -1.9990    -0.0000     1.2710 ca         1 1K0      -0.201000
     28 H1           1.7900    -0.0030    -1.0210 h1         1 1K0       0.043367
     29 H2           1.7900    -0.8830     0.5130 h1         1 1K0       0.043367
     30 H3           1.7900     0.8860     0.5080 h1         1 1K0       0.043367
     31 H4           1.2300     0.0080     2.3030 ha         1 1K0       0.144000
     32 H5          -4.4170    -0.0060     5.8260 hn         1 1K0       0.337500
     33 H6           2.0060     0.9000     4.0290 h1         1 1K0       0.042700
     34 H7           2.0140    -0.8690     4.0330 h1         1 1K0       0.042700
     35 H8           2.1850     0.0200     5.5530 h1         1 1K0       0.042700
     36 H9         -13.7200    -0.4480     2.7120 ho         1 1K0       0.403000
     37 H10         -6.2710    -0.0900     1.6650 ha         1 1K0       0.148000
     38 H11         -9.8440     0.5710     1.4790 hc         1 1K0       0.050367
     39 H12         -9.2320    -1.0480     1.1130 hc         1 1K0       0.050367
     40 H13         -8.3420     0.3790     0.5650 hc         1 1K0       0.050367
     41 H14        -10.5220    -1.8580     4.7900 h1         1 1K0       0.039700
     42 H15        -10.5610    -1.8610     3.0220 h1         1 1K0       0.039700
     43 H16        -12.6180    -0.4830     4.7850 h1         1 1K0       0.032200
     44 H17        -12.8380    -2.0750     4.0450 h1         1 1K0       0.032200
     45 H18         -9.7180     0.6150     6.3050 hc         1 1K0       0.050367
     46 H19         -8.1870     0.3520     7.1510 hc         1 1K0       0.050367
     47 H20         -9.1510    -1.0320     6.6180 hc         1 1K0       0.050367
     48 H21         -6.1780    -0.0170     5.9590 ha         1 1K0       0.148000
     49 H22         -2.5830     0.0890     0.3630 ha         1 1K0       0.162000
@<TRIPOS>BOND
     1     7     8 1
     2     8     5 1
     3     4     5 ar
     4     4     3 ar
     5     1     3 1
     6     1     2 1
     7     5     9 ar
     8     3    27 ar
     9     9    26 ar
    10     9    12 1
    11    27    26 ar
    12    15    12 2
    13    26    11 1
    14    12     6 1
    15    11    13 2
    16     6    13 1
    17    13    16 1
    18    16    17 ar
    19    16    25 ar
    20    17    18 ar
    21    25    23 ar
    22    18    19 1
    23    18    20 ar
    24    23    20 ar
    25    23    24 1
    26    20    10 1
    27    10    21 1
    28    21    22 1
    29    14    22 1
    30     2    28 1
    31     2    29 1
    32     2    30 1
    33     4    31 1
    34     6    32 1
    35     7    33 1
    36     7    34 1
    37     7    35 1
    38    14    36 1
    39    17    37 1
    40    19    38 1
    41    19    39 1
    42    19    40 1
    43    21    41 1
    44    21    42 1
    45    22    43 1
    46    22    44 1
    47    24    45 1
    48    24    46 1
    49    24    47 1
    50    25    48 1
    51    27    49 1
@<TRIPOS>SUBSTRUCTURE
     1 1K0         1 TEMP              0 ****  ****    0 ROOT
