@<TRIPOS>MOLECULE
1K3
   57    61     1     0     0
SMALL
bcc


@<TRIPOS>ATOM
      1 C24          0.0000     0.0000     0.0000 c3         1 1K3       0.243700
      2 O1           1.4300     0.0000     0.0000 os         1 1K3      -0.305900
      3 C10          2.0460     0.0000     1.2090 ca         1 1K3       0.167100
      4 C9           3.4340     0.0000     1.2790 ca         1 1K3      -0.180500
      5 C8           4.0640     0.0000     2.5050 ca         1 1K3      -0.022500
      6 C11          1.2880     0.0050     2.3730 ca         1 1K3      -0.180500
      7 C12          1.9100     0.0060     3.6030 ca         1 1K3      -0.022500
      8 C7           3.3050    -0.0010     3.6790 ca         1 1K3      -0.103000
      9 C3           3.9750    -0.0000     4.9950 cc         1 1K3      -0.108300
     10 C2           3.8320    -1.0790     5.8380 cd         1 1K3      -0.133000
     11 N1           4.7410     1.0690     5.3680 na         1 1K3       0.704000
     12 N2           5.0700     2.2780     4.7400 nc         1 1K3      -0.846100
     13 C6           5.8500     2.9440     5.5680 cd         1 1K3       0.660200
     14 N3           6.0320     2.2310     6.6750 nd         1 1K3      -0.450300
     15 C4           5.3680     1.0830     6.5820 cc         1 1K3      -0.155300
     16 C5           5.2270    -0.0080     7.4560 cc         1 1K3      -0.085000
     17 C1           4.4680    -1.0790     7.0830 cd         1 1K3      -0.078000
     18 N4           6.3990     4.2010     5.3190 nu         1 1K3      -0.230600
     19 C13          7.3050     4.7610     6.2290 ca         1 1K3      -0.022400
     20 C18          7.3880     6.1400     6.3670 ca         1 1K3      -0.103000
     21 C17          8.2770     6.6920     7.2670 ca         1 1K3      -0.124500
     22 C16          9.0900     5.8680     8.0360 ca         1 1K3       0.001600
     23 C15          9.0070     4.4880     7.8960 ca         1 1K3      -0.124500
     24 C14          8.1180     3.9360     6.9960 ca         1 1K3      -0.103000
     25 N5           9.9920     6.4270     8.9470 nh         1 1K3      -0.363000
     26 C22         10.8990     7.3700     8.2790 c3         1 1K3       0.135800
     27 C21         11.8150     8.0170     9.3200 c3         1 1K3       0.152800
     28 N6          12.5710     6.9720    10.0230 n3         1 1K3      -0.549600
     29 C23         13.5170     7.5580    10.9800 c3         1 1K3       0.189100
     30 C20         11.6630     6.0280    10.6910 c3         1 1K3       0.152800
     31 C19         10.7470     5.3800     9.6490 c3         1 1K3       0.135800
     32 H1          -0.3610     0.8860     0.5070 h1         1 1K3      -0.001633
     33 H2          -0.3610    -0.8830     0.5140 h1         1 1K3      -0.001633
     34 H3          -0.3610    -0.0040    -1.0210 h1         1 1K3      -0.001633
     35 H4           4.0210     0.0010     0.3690 ha         1 1K3       0.121500
     36 H5           5.1460    -0.0020     2.5590 ha         1 1K3       0.107500
     37 H6           0.2060     0.0100     2.3140 ha         1 1K3       0.121500
     38 H7           1.3180     0.0080     4.5100 ha         1 1K3       0.107500
     39 H8           3.2280    -1.9260     5.5370 ha         1 1K3       0.128000
     40 H9           5.7220    -0.0010     8.4200 ha         1 1K3       0.128000
     41 H10          4.3580    -1.9250     7.7500 ha         1 1K3       0.114000
     42 H11          6.1770     4.6850     4.4720 hn         1 1K3       0.290800
     43 H12          6.7540     6.7830     5.7680 ha         1 1K3       0.123500
     44 H13          8.3410     7.7680     7.3750 ha         1 1K3       0.116500
     45 H14          9.6410     3.8440     8.4950 ha         1 1K3       0.116500
     46 H15          8.0540     2.8600     6.8880 ha         1 1K3       0.123500
     47 H16         11.5010     6.8380     7.5520 h1         1 1K3       0.023950
     48 H17         10.3190     8.1380     7.7830 h1         1 1K3       0.023950
     49 H18         12.5050     8.6890     8.8250 h1         1 1K3       0.014450
     50 H19         11.2150     8.5690    10.0340 h1         1 1K3       0.014450
     51 H21         12.9720     8.1160    11.7320 h1         1 1K3       0.000033
     52 H22         14.0850     6.7680    11.4580 h1         1 1K3       0.000033
     53 H23         14.1940     8.2240    10.4580 h1         1 1K3       0.000033
     54 H24         11.0620     6.5600    11.4180 h1         1 1K3       0.014450
     55 H25         12.2440     5.2590    11.1870 h1         1 1K3       0.014450
     56 H26         11.3470     4.8280     8.9360 h1         1 1K3       0.023950
     57 H27         10.0570     4.7090    10.1450 h1         1 1K3       0.023950
@<TRIPOS>BOND
     1     1     2 1   
     2     1    32 1   
     3     1    33 1   
     4     1    34 1   
     5     2     3 1   
     6     3     4 ar  
     7     3     6 ar  
     8     4     5 ar  
     9     4    35 1   
    10     5     8 ar  
    11     5    36 1   
    12     6     7 ar  
    13     6    37 1   
    14     7     8 ar  
    15     7    38 1   
    16     8     9 1   
    17     9    10 2   
    18     9    11 1   
    19    10    17 1   
    20    10    39 1   
    21    11    12 1   
    22    11    15 1   
    23    12    13 2   
    24    13    14 1   
    25    13    18 1   
    26    14    15 2   
    27    15    16 1   
    28    16    17 2   
    29    16    40 1   
    30    17    41 1   
    31    18    19 1   
    32    18    42 1   
    33    19    20 ar  
    34    19    24 ar  
    35    20    21 ar  
    36    20    43 1   
    37    21    22 ar  
    38    21    44 1   
    39    22    23 ar  
    40    22    25 1   
    41    23    24 ar  
    42    23    45 1   
    43    24    46 1   
    44    25    26 1   
    45    25    31 1   
    46    26    27 1   
    47    26    47 1   
    48    26    48 1   
    49    27    28 1   
    50    27    49 1   
    51    27    50 1   
    52    28    29 1   
    53    28    30 1   
    54    29    51 1   
    55    29    52 1   
    56    29    53 1   
    57    30    31 1   
    58    30    54 1   
    59    30    55 1   
    60    31    56 1   
    61    31    57 1   
@<TRIPOS>SUBSTRUCTURE
     1 1K3         1 TEMP              0 ****  ****    0 ROOT
