@<TRIPOS>MOLECULE
molecule
   57    61     1     0     0
SMALL
bcc


@<TRIPOS>ATOM
      1 C24          0.0000     0.0000     0.0000 c3         1 1K3       0.127700
      2 O1           1.4300     0.0000     0.0000 os         1 1K3      -0.325900
      3 C10          2.0460     0.0000     1.2090 ca         1 1K3       0.158100
      4 C9           3.4340     0.0000     1.2790 ca         1 1K3      -0.196000
      5 C8           4.0640     0.0000     2.5050 ca         1 1K3      -0.053000
      6 C11          1.2880     0.0050     2.3730 ca         1 1K3      -0.196000
      7 C12          1.9100     0.0060     3.6030 ca         1 1K3      -0.053000
      8 C7           3.3050    -0.0010     3.6790 ca         1 1K3      -0.104000
      9 C3           3.9750    -0.0000     4.9950 cc         1 1K3       0.084700
     10 C2           3.8320    -1.0790     5.8380 cd         1 1K3      -0.188000
     11 N1           4.7410     1.0690     5.3680 na         1 1K3       0.187000
     12 N2           5.0700     2.2780     4.7400 nc         1 1K3      -0.657100
     13 C6           5.8500     2.9440     5.5680 cd         1 1K3       0.802200
     14 N3           6.0320     2.2310     6.6750 nd         1 1K3      -0.500300
     15 C4           5.3680     1.0830     6.5820 cc         1 1K3       0.041700
     16 C5           5.2270    -0.0080     7.4560 cc         1 1K3      -0.134000
     17 C1           4.4680    -1.0790     7.0830 cd         1 1K3      -0.085000
     18 N4           6.3990     4.2010     5.3190 nu         1 1K3      -0.712600
     19 C13          7.3050     4.7610     6.2290 ca         1 1K3       0.142600
     20 C18          7.3880     6.1400     6.3670 ca         1 1K3      -0.131000
     21 C17          8.2770     6.6920     7.2670 ca         1 1K3      -0.146000
     22 C16          9.0900     5.8680     8.0360 ca         1 1K3       0.080600
     23 C15          9.0070     4.4880     7.8960 ca         1 1K3      -0.146000
     24 C14          8.1180     3.9360     6.9960 ca         1 1K3      -0.131000
     25 N5           9.9920     6.4270     8.9470 nh         1 1K3      -0.597000
     26 C22         10.8990     7.3700     8.2790 c3         1 1K3       0.165800
     27 C21         11.8150     8.0170     9.3200 c3         1 1K3       0.160800
     28 N6          12.5710     6.9720    10.0230 n3         1 1K3      -0.734600
     29 C23         13.5170     7.5580    10.9800 c3         1 1K3       0.153100
     30 C20         11.6630     6.0280    10.6910 c3         1 1K3       0.160800
     31 C19         10.7470     5.3800     9.6490 c3         1 1K3       0.165800
     32 H1          -0.3610     0.8860     0.5070 h1         1 1K3       0.043033
     33 H2          -0.3610    -0.8830     0.5140 h1         1 1K3       0.043033
     34 H3          -0.3610    -0.0040    -1.0210 h1         1 1K3       0.043033
     35 H4           4.0210     0.0010     0.3690 ha         1 1K3       0.144000
     36 H5           5.1460    -0.0020     2.5590 ha         1 1K3       0.141500
     37 H6           0.2060     0.0100     2.3140 ha         1 1K3       0.144000
     38 H7           1.3180     0.0080     4.5100 ha         1 1K3       0.141500
     39 H8           3.2280    -1.9260     5.5370 ha         1 1K3       0.159000
     40 H9           5.7220    -0.0010     8.4200 ha         1 1K3       0.162000
     41 H10          4.3580    -1.9250     7.7500 ha         1 1K3       0.145000
     42 H11          6.1770     4.6850     4.4720 hn         1 1K3       0.465800
     43 H12          6.7540     6.7830     5.7680 ha         1 1K3       0.147500
     44 H13          8.3410     7.7680     7.3750 ha         1 1K3       0.137000
     45 H14          9.6410     3.8440     8.4950 ha         1 1K3       0.137000
     46 H15          8.0540     2.8600     6.8880 ha         1 1K3       0.147500
     47 H16         11.5010     6.8380     7.5520 h1         1 1K3       0.048700
     48 H17         10.3190     8.1380     7.7830 h1         1 1K3       0.048700
     49 H18         12.5050     8.6890     8.8250 h1         1 1K3       0.041700
     50 H19         11.2150     8.5690    10.0340 h1         1 1K3       0.041700
     51 H21         12.9720     8.1160    11.7320 h1         1 1K3       0.032033
     52 H22         14.0850     6.7680    11.4580 h1         1 1K3       0.032033
     53 H23         14.1940     8.2240    10.4580 h1         1 1K3       0.032033
     54 H24         11.0620     6.5600    11.4180 h1         1 1K3       0.041700
     55 H25         12.2440     5.2590    11.1870 h1         1 1K3       0.041700
     56 H26         11.3470     4.8280     8.9360 h1         1 1K3       0.048700
     57 H27         10.0570     4.7090    10.1450 h1         1 1K3       0.048700
@<TRIPOS>BOND
     1    29    28 1
     2    27    28 1
     3    27    26 1
     4     2     1 1
     5     2     3 1
     6     6     3 ar
     7     6     7 ar
     8    28    30 1
     9    30    31 1
    10     3     4 ar
    11     7     8 ar
    12    26    25 1
    13     4     5 ar
    14    25    31 1
    15    25    22 1
    16     8     5 ar
    17     8     9 1
    18    21    22 ar
    19    21    20 ar
    20    22    23 ar
    21    20    19 ar
    22     9    10 2
    23     9    11 1
    24    10    17 1
    25    23    24 ar
    26    12    11 1
    27    12    13 2
    28    11    15 1
    29    19    24 ar
    30    19    18 1
    31    17    16 2
    32    13    18 1
    33    13    14 1
    34    15    16 1
    35    15    14 2
    36     1    32 1
    37     1    33 1
    38     1    34 1
    39     4    35 1
    40     5    36 1
    41     6    37 1
    42     7    38 1
    43    10    39 1
    44    16    40 1
    45    17    41 1
    46    18    42 1
    47    20    43 1
    48    21    44 1
    49    23    45 1
    50    24    46 1
    51    26    47 1
    52    26    48 1
    53    27    49 1
    54    27    50 1
    55    29    51 1
    56    29    52 1
    57    29    53 1
    58    30    54 1
    59    30    55 1
    60    31    56 1
    61    31    57 1
@<TRIPOS>SUBSTRUCTURE
     1 1K3         1 TEMP              0 ****  ****    0 ROOT
