@<TRIPOS>MOLECULE
1K3
   57    61     1     0     0
SMALL
bcc


@<TRIPOS>ATOM
      1 C24         -0.1010     0.2220     0.1770 c3         1 1K3       0.112700
      2 O1           1.3120     0.2110     0.0060 os         1 1K3      -0.324900
      3 C10          2.0660     0.1640     1.1600 ca         1 1K3       0.141100
      4 C9           1.5340     0.1490     2.4560 ca         1 1K3      -0.188000
      5 C8           2.4000     0.1020     3.5460 ca         1 1K3      -0.059000
      6 C11          3.4590     0.1310     0.9570 ca         1 1K3      -0.188000
      7 C12          4.3090     0.0820     2.0540 ca         1 1K3      -0.059000
      8 C7           3.7860     0.0700     3.3560 ca         1 1K3      -0.095000
      9 C3           4.6650     0.0500     4.5320 cc         1 1K3       0.080700
     10 C2           4.4700     0.9380     5.5800 cd         1 1K3      -0.192000
     11 N1           5.7100    -0.8660     4.6260 na         1 1K3       0.177000
     12 N2           6.0840    -1.8170     3.7520 nc         1 1K3      -0.612100
     13 C6           7.1710    -2.4390     4.3720 cd         1 1K3       0.702200
     14 N3           7.4930    -1.8720     5.6390 nd         1 1K3      -0.423300
     15 C4           6.5630    -0.8890     5.7920 cc         1 1K3       0.004700
     16 C5           6.3320     0.0420     6.8520 cc         1 1K3      -0.127000
     17 C1           5.2990     0.9330     6.7300 cd         1 1K3      -0.090000
     18 N4           7.8410    -3.5730     3.8790 nu         1 1K3      -0.626600
     19 C13          7.8920    -3.7930     2.4770 ca         1 1K3       0.082600
     20 C18          6.7190    -4.0120     1.7300 ca         1 1K3      -0.114500
     21 C17          6.7880    -4.3180     0.3770 ca         1 1K3      -0.156500
     22 C16          8.0260    -4.4180    -0.2930 ca         1 1K3       0.126600
     23 C15          9.2010    -4.2030     0.4650 ca         1 1K3      -0.156500
     24 C14          9.1340    -3.8950     1.8150 ca         1 1K3      -0.114500
     25 N5           8.1290    -4.6380    -1.6910 nh         1 1K3      -0.633000
     26 C22          6.8850    -4.5980    -2.4410 c3         1 1K3       0.184300
     27 C21          7.1180    -4.6550    -3.9640 c3         1 1K3       0.165300
     28 N6           7.9680    -5.7660    -4.3670 n3         1 1K3      -0.732600
     29 C23          8.1960    -5.7990    -5.7940 c3         1 1K3       0.157100
     30 C20          9.2070    -5.8150    -3.6040 c3         1 1K3       0.165300
     31 C19          8.9790    -5.7550    -2.0810 c3         1 1K3       0.184300
     32 H1          -0.4430    -0.7050     0.6990 h1         1 1K3       0.046033
     33 H2          -0.4880     0.2500    -0.8730 h1         1 1K3       0.046033
     34 H3          -0.4230     1.1310     0.7400 h1         1 1K3       0.046033
     35 H4           0.4490     0.1700     2.6240 ha         1 1K3       0.147500
     36 H5           1.9860     0.0850     4.5670 ha         1 1K3       0.146500
     37 H6           3.8560     0.1420    -0.0690 ha         1 1K3       0.147500
     38 H7           5.3980     0.0530     1.8910 ha         1 1K3       0.146500
     39 H8           3.6510     1.6690     5.5060 ha         1 1K3       0.155000
     40 H9           6.9930     0.0050     7.7290 ha         1 1K3       0.166000
     41 H10          5.0950     1.6630     7.5280 ha         1 1K3       0.144000
     42 H11          8.7260    -3.7190     4.3310 hn         1 1K3       0.424800
     43 H12          5.7300    -3.9500     2.2120 ha         1 1K3       0.143500
     44 H13          5.8420    -4.4840    -0.1620 ha         1 1K3       0.136500
     45 H14         10.1910    -4.2600    -0.0140 ha         1 1K3       0.136500
     46 H15         10.0730    -3.7310     2.3680 ha         1 1K3       0.143500
     47 H16          6.3660    -3.6250    -2.2110 h1         1 1K3       0.044450
     48 H17          6.1960    -5.4450    -2.1520 h1         1 1K3       0.044450
     49 H18          7.5370    -3.6630    -4.3040 h1         1 1K3       0.038450
     50 H19          6.1150    -4.7950    -4.4570 h1         1 1K3       0.038450
     51 H21          7.2050    -5.8470    -6.3160 h1         1 1K3       0.033033
     52 H22          8.7820    -6.7220    -6.0440 h1         1 1K3       0.033033
     53 H23          8.7590    -4.9040    -6.1780 h1         1 1K3       0.033033
     54 H24          9.9120    -4.9820    -3.8980 h1         1 1K3       0.038450
     55 H25          9.7140    -6.7940    -3.8340 h1         1 1K3       0.038450
     56 H26          9.9840    -5.6350    -1.5910 h1         1 1K3       0.044450
     57 H27          8.5400    -6.7380    -1.7420 h1         1 1K3       0.044450
@<TRIPOS>BOND
     1     1     2 1   
     2     1    32 1   
     3     1    33 1   
     4     1    34 1   
     5     2     3 1   
     6     3     4 ar  
     7     3     6 ar  
     8     4     5 ar  
     9     4    35 1   
    10     5     8 ar  
    11     5    36 1   
    12     6     7 ar  
    13     6    37 1   
    14     7     8 ar  
    15     7    38 1   
    16     8     9 1   
    17     9    10 2   
    18     9    11 1   
    19    10    17 1   
    20    10    39 1   
    21    11    12 1   
    22    11    15 1   
    23    12    13 2   
    24    13    14 1   
    25    13    18 1   
    26    14    15 2   
    27    15    16 1   
    28    16    17 2   
    29    16    40 1   
    30    17    41 1   
    31    18    19 1   
    32    18    42 1   
    33    19    20 ar  
    34    19    24 ar  
    35    20    21 ar  
    36    20    43 1   
    37    21    22 ar  
    38    21    44 1   
    39    22    23 ar  
    40    22    25 1   
    41    23    24 ar  
    42    23    45 1   
    43    24    46 1   
    44    25    26 1   
    45    25    31 1   
    46    26    27 1   
    47    26    47 1   
    48    26    48 1   
    49    27    28 1   
    50    27    49 1   
    51    27    50 1   
    52    28    29 1   
    53    28    30 1   
    54    29    51 1   
    55    29    52 1   
    56    29    53 1   
    57    30    31 1   
    58    30    54 1   
    59    30    55 1   
    60    31    56 1   
    61    31    57 1   
@<TRIPOS>SUBSTRUCTURE
     1 1K3         1 TEMP              0 ****  ****    0 ROOT
