@<TRIPOS>MOLECULE
molecule
   45    44     1     0     0
SMALL
bcc


@<TRIPOS>ATOM
      1 OXT          0.0000     0.0000     0.0000 o          1 1K4      -0.838300
      2 C            1.3420     0.0000     0.0000 c          1 1K4       0.888600
      3 O            1.9470     0.0000     1.0460 o          1 1K4      -0.838300
      4 CA           2.0950     0.0010    -1.3070 c3         1 1K4       0.004700
      5 CB           1.7250    -1.2490    -2.1080 c3         1 1K4      -0.073400
      6 CAG          2.3910    -1.1870    -3.4850 c3         1 1K4       0.128400
      7 OAD          2.0460    -2.3530    -4.2330 oh         1 1K4      -0.619800
      8 N            3.5350     0.0010    -1.0400 ns         1 1K4      -0.552900
      9 CAQ          4.1790     1.1640    -0.8170 c          1 1K4       0.661100
     10 OAB          3.5660     2.2100    -0.8370 o          1 1K4      -0.622100
     11 CAN          5.6610     1.1640    -0.5420 c3         1 1K4      -0.160400
     12 CAM          6.1390     2.6010    -0.3260 c3         1 1K4      -0.064400
     13 CAL          7.6440     2.6010    -0.0470 c3         1 1K4      -0.086400
     14 CAK          8.1220     4.0390     0.1700 c3         1 1K4      -0.080400
     15 CAJ          9.6270     4.0390     0.4470 c3         1 1K4      -0.082400
     16 CAI         10.1050     5.4760     0.6650 c3         1 1K4      -0.082400
     17 CAH         11.6100     5.4770     0.9430 c3         1 1K4      -0.082400
     18 CAF         12.0880     6.9130     1.1600 c3         1 1K4      -0.084400
     19 CAA         13.5920     6.9130     1.4380 c3         1 1K4      -0.092100
     20 H2           1.8320     0.8850    -1.8750 h1         1 1K4       0.072700
     21 H3           0.6490    -1.2950    -2.2290 hc         1 1K4       0.066200
     22 H4           2.0670    -2.1310    -1.5810 hc         1 1K4       0.066200
     23 H5           3.4660    -1.1410    -3.3640 h1         1 1K4       0.012200
     24 H6           2.0490    -0.3050    -4.0120 h1         1 1K4       0.012200
     25 H7           2.3840    -2.2760    -5.1100 ho         1 1K4       0.382000
     26 H8           4.0340    -0.8650    -0.9870 hn         1 1K4       0.295500
     27 H9           6.1850     0.7320    -1.3860 hc         1 1K4       0.047700
     28 H10          5.8640     0.5780     0.3470 hc         1 1K4       0.047700
     29 H11          5.6150     3.0330     0.5180 hc         1 1K4       0.058200
     30 H12          5.9370     3.1870    -1.2150 hc         1 1K4       0.058200
     31 H13          7.8460     2.0150     0.8410 hc         1 1K4       0.034200
     32 H14          8.1670     2.1690    -0.8920 hc         1 1K4       0.034200
     33 H15          7.9190     4.6250    -0.7180 hc         1 1K4       0.043200
     34 H16          7.5990     4.4700     1.0150 hc         1 1K4       0.043200
     35 H17          9.8300     3.4520     1.3350 hc         1 1K4       0.038200
     36 H18         10.1500     3.6080    -0.3980 hc         1 1K4       0.038200
     37 H19          9.9010     6.0620    -0.2230 hc         1 1K4       0.040700
     38 H20          9.5810     5.9070     1.5090 hc         1 1K4       0.040700
     39 H21         12.1330     5.0450     0.0990 hc         1 1K4       0.039200
     40 H22         11.8130     4.8910     1.8310 hc         1 1K4       0.039200
     41 H23         11.5640     7.3450     2.0040 hc         1 1K4       0.039700
     42 H24         11.8850     7.4990     0.2710 hc         1 1K4       0.039700
     43 H25         13.9310     7.9310     1.5910 hc         1 1K4       0.029700
     44 H26         14.1160     6.4820     0.5930 hc         1 1K4       0.029700
     45 H27         13.7950     6.3280     2.3260 hc         1 1K4       0.029700
@<TRIPOS>BOND
     1     6     5 1   
     2     6     7 1   
     3     5     4 1   
     4     3     2 1   
     5     2     4 1   
     6     2     1 1   
     7     4     8 1   
     8     8     9 1   
     9     9    10 2   
    10     9    11 1   
    11    11    12 1   
    12    13    12 1   
    13    13    14 1   
    14    14    15 1   
    15    15    16 1   
    16    16    17 1   
    17    17    18 1   
    18    18    19 1   
    19     4    20 1   
    20     5    21 1   
    21     5    22 1   
    22     6    23 1   
    23     6    24 1   
    24     7    25 1   
    25     8    26 1   
    26    11    27 1   
    27    11    28 1   
    28    12    29 1   
    29    12    30 1   
    30    13    31 1   
    31    13    32 1   
    32    14    33 1   
    33    14    34 1   
    34    15    35 1   
    35    15    36 1   
    36    16    37 1   
    37    16    38 1   
    38    17    39 1   
    39    17    40 1   
    40    18    41 1   
    41    18    42 1   
    42    19    43 1   
    43    19    44 1   
    44    19    45 1   
@<TRIPOS>SUBSTRUCTURE
     1 1K4         1 TEMP              0 ****  ****    0 ROOT
