@<TRIPOS>MOLECULE
1K4
   46    45     1     0     0
SMALL
bcc


@<TRIPOS>ATOM
      1 OXT          1.8820     0.5230     1.1600 o          1 1K4      -0.767300
      2 C            2.6090    -0.1640     0.4240 c          1 1K4       0.928600
      3 O            3.5470    -0.9510     0.7220 o          1 1K4      -0.767300
      4 CA           2.3180    -0.0110    -1.1430 c3         1 1K4      -0.049500
      5 CB           0.9400    -0.5830    -1.4240 c3         1 1K4      -0.096400
      6 CAG          0.4350    -0.3050    -2.8270 c3         1 1K4       0.115400
      7 OAD          1.1500    -1.1510    -3.7210 oh         1 1K4      -0.642800
      8 N            3.3960    -0.7030    -1.9320 ny         1 1K4      -0.667800
      9 CAQ          4.5410     0.2180    -2.2220 c          1 1K4       0.561100
     10 OAB          4.5160     0.7810    -3.3120 o          1 1K4      -0.476100
     11 CAN          5.5810     0.3250    -1.1450 c3         1 1K4      -0.165400
     12 CAM          6.5340     1.4780    -1.3750 c3         1 1K4      -0.077400
     13 CAL          7.5600     1.1750    -2.4470 c3         1 1K4      -0.086400
     14 CAK          8.5560     2.3020    -2.6200 c3         1 1K4      -0.076400
     15 CAJ          7.9730     3.4820    -3.3670 c3         1 1K4      -0.080400
     16 CAI          9.0060     4.5720    -3.5580 c3         1 1K4      -0.079400
     17 CAH          8.4230     5.7550    -4.3020 c3         1 1K4      -0.078400
     18 CAF          9.4390     6.8560    -4.5230 c3         1 1K4      -0.079400
     19 CAA          9.7190     7.6490    -3.2730 c3         1 1K4      -0.093100
     20 H2           2.3440     1.0830    -1.4030 hx         1 1K4       0.088700
     21 H3           0.2450    -0.0970    -0.6820 hc         1 1K4       0.095200
     22 H4           0.9250    -1.6880    -1.2290 hc         1 1K4       0.095200
     23 H5          -0.6630    -0.5330    -2.8910 h1         1 1K4       0.038700
     24 H6           0.6030     0.7690    -3.1110 h1         1 1K4       0.038700
     25 H7           0.8010    -0.9910    -4.6050 ho         1 1K4       0.419000
     26 H8           3.7330    -1.4710    -1.3190 hn         1 1K4       0.468300
     27 H9           5.0640     0.4370    -0.1420 hc         1 1K4       0.121700
     28 H10          6.1430    -0.6490    -1.1060 hc         1 1K4       0.121700
     29 H11          7.0560     1.6910    -0.4040 hc         1 1K4       0.065200
     30 H12          5.9550     2.3980    -1.6550 hc         1 1K4       0.065200
     31 H13          7.0350     0.9810    -3.4200 hc         1 1K4       0.043700
     32 H14          8.1160     0.2390    -2.1710 hc         1 1K4       0.043700
     33 H15          8.9250     2.6380    -1.6150 hc         1 1K4       0.043200
     34 H16          9.4450     1.9140    -3.1860 hc         1 1K4       0.043200
     35 H17          7.0950     3.8930    -2.8020 hc         1 1K4       0.041700
     36 H18          7.5920     3.1450    -4.3670 hc         1 1K4       0.041700
     37 H19          9.3890     4.9070    -2.5580 hc         1 1K4       0.040700
     38 H20          9.8820     4.1640    -4.1280 hc         1 1K4       0.040700
     39 H21          8.0380     5.4070    -5.2980 hc         1 1K4       0.039200
     40 H22          7.5460     6.1620    -3.7320 hc         1 1K4       0.039200
     41 H23          9.0530     7.5490    -5.3180 hc         1 1K4       0.038200
     42 H24         10.3950     6.4110    -4.9080 hc         1 1K4       0.038200
     43 H25          8.7810     8.1150    -2.8820 hc         1 1K4       0.033033
     44 H26         10.4530     8.4630    -3.4870 hc         1 1K4       0.033033
     45 H27         10.1430     6.9950    -2.4730 hc         1 1K4       0.033033
     46 H28          3.0090    -1.0780    -2.8050 hn         1 1K4       0.468300
@<TRIPOS>BOND
     1     1     2 1   
     2     2     3 1   
     3     2     4 1   
     4     4     5 1   
     5     4     8 1   
     6     4    20 1   
     7     5     6 1   
     8     5    21 1   
     9     5    22 1   
    10     6     7 1   
    11     6    23 1   
    12     6    24 1   
    13     7    25 1   
    14     8     9 1   
    15     8    26 1   
    16     8    46 1   
    17     9    10 2   
    18     9    11 1   
    19    11    12 1   
    20    11    27 1   
    21    11    28 1   
    22    12    13 1   
    23    12    29 1   
    24    12    30 1   
    25    13    14 1   
    26    13    31 1   
    27    13    32 1   
    28    14    15 1   
    29    14    33 1   
    30    14    34 1   
    31    15    16 1   
    32    15    35 1   
    33    15    36 1   
    34    16    17 1   
    35    16    37 1   
    36    16    38 1   
    37    17    18 1   
    38    17    39 1   
    39    17    40 1   
    40    18    19 1   
    41    18    41 1   
    42    18    42 1   
    43    19    43 1   
    44    19    44 1   
    45    19    45 1   
@<TRIPOS>SUBSTRUCTURE
     1 1K4         1 TEMP              0 ****  ****    0 ROOT
