@<TRIPOS>MOLECULE
molecule
   29    31     1     0     0
SMALL
bcc


@<TRIPOS>ATOM
      1 C10          0.0000     0.0000     0.0000 ca         1 1K5       0.235600
      2 C13         -2.7810     0.0140     0.0050 ca         1 1K5      -0.205000
      3 C01          3.4660    -0.2960     1.1590 ca         1 1K5      -0.171000
      4 C02          4.1840    -0.2860     2.3350 ca         1 1K5      -0.081000
      5 C03          3.5660     0.0180     3.5400 ca         1 1K5      -0.205000
      6 C04          2.2270     0.3130     3.5780 ca         1 1K5      -0.046500
      7 C05          1.4840     0.3040     2.3970 ca         1 1K5      -0.235600
      8 C06          2.1060     0.0000     1.1730 ca         1 1K5       0.235600
      9 N07          1.3790     0.0000     0.0000 na         1 1K5      -0.491400
     10 C08          0.0400     0.6090     2.4050 c          1 1K5       0.607300
     11 C09         -0.7130     0.3030     1.1730 ca         1 1K5      -0.235600
     12 C11         -0.7040    -0.2940    -1.1650 ca         1 1K5      -0.171000
     13 C12         -2.1080     0.3090     1.1640 ca         1 1K5      -0.046500
     14 C14         -2.0820    -0.2820    -1.1560 ca         1 1K5      -0.081000
     15 O15         -0.5040     1.0910     3.3810 o          1 1K5      -0.590100
     16 C16          2.0930    -0.0010    -1.2800 c3         1 1K5       0.088800
     17 O17          2.9780    -1.6690    -2.8700 o          1 1K5      -0.824800
     18 O18          1.9530    -2.3400    -1.0320 o          1 1K5      -0.824800
     19 C19          2.3360    -1.4230    -1.7180 c          1 1K5       0.864600
     20 H1          -3.8640     0.0200    -0.0060 ha         1 1K5       0.115000
     21 H2           3.9600    -0.5340     0.2250 ha         1 1K5       0.164000
     22 H3           5.2420    -0.5170     2.3190 ha         1 1K5       0.120000
     23 H4           4.1440     0.0220     4.4560 ha         1 1K5       0.115000
     24 H5           1.7480     0.5490     4.5210 ha         1 1K5       0.136000
     25 H6          -0.1690    -0.5270    -2.0780 ha         1 1K5       0.164000
     26 H7          -2.6580     0.5400     2.0680 ha         1 1K5       0.136000
     27 H8          -2.6260    -0.5130    -2.0640 ha         1 1K5       0.120000
     28 H9           1.4960     0.5100    -2.0260 h1         1 1K5       0.055700
     29 H10          3.0420     0.5080    -1.1650 h1         1 1K5       0.055700
@<TRIPOS>BOND
     1    14     2 ar
     2    14    12 ar
     3     2    13 ar
     4    12     1 ar
     5    18    19 1
     6    19    17 1
     7    19    16 1
     8    13    11 ar
     9     1    11 ar
    10     1     9 1
    11    16     9 1
    12    11    10 1
    13     9     8 1
    14    10    15 2
    15    10     7 1
    16     8     7 ar
    17     8     3 ar
    18     7     6 ar
    19     3     4 ar
    20     6     5 ar
    21     4     5 ar
    22     2    20 1
    23     3    21 1
    24     4    22 1
    25     5    23 1
    26     6    24 1
    27    12    25 1
    28    13    26 1
    29    14    27 1
    30    16    28 1
    31    16    29 1
@<TRIPOS>SUBSTRUCTURE
     1 1K5         1 TEMP              0 ****  ****    0 ROOT
