@<TRIPOS>MOLECULE
1K5
   29    31     1     0     0
SMALL
bcc


@<TRIPOS>ATOM
      1 C10         -0.0440    -0.0260     0.0330 ca         1 1K5       0.215600
      2 C13         -2.8510    -0.1020    -0.2340 ca         1 1K5      -0.203000
      3 C01          3.3120    -0.3430     1.5590 ca         1 1K5      -0.176000
      4 C02          3.8820    -0.4000     2.8150 ca         1 1K5      -0.090000
      5 C03          3.1140    -0.1920     3.9710 ca         1 1K5      -0.203000
      6 C04          1.7580     0.0470     3.8540 ca         1 1K5      -0.057000
      7 C05          1.1410     0.1080     2.5930 ca         1 1K5      -0.233600
      8 C06          1.9220    -0.0560     1.4190 ca         1 1K5       0.215600
      9 N07          1.3410     0.0680     0.1580 na         1 1K5      -0.490400
     10 C08         -0.3070     0.3190     2.5020 c          1 1K5       0.601300
     11 C09         -0.8840     0.1380     1.1650 ca         1 1K5      -0.233600
     12 C11         -0.6490    -0.2840    -1.2330 ca         1 1K5      -0.176000
     13 C12         -2.2800     0.1070     1.0080 ca         1 1K5      -0.057000
     14 C14         -2.0240    -0.3110    -1.3490 ca         1 1K5      -0.090000
     15 O15         -1.0030     0.6130     3.4940 o          1 1K5      -0.611100
     16 C16          2.1680     0.2940    -1.0110 c3         1 1K5       0.063800
     17 O17          3.7800    -1.4570    -1.3840 o          1 1K5      -0.820300
     18 O18          1.9430    -1.4290    -2.6790 o          1 1K5      -0.820300
     19 C19          2.6670    -0.9900    -1.7460 c          1 1K5       0.910600
     20 H1          -3.9430    -0.1210    -0.3500 ha         1 1K5       0.117000
     21 H2           3.9120    -0.5760     0.6550 ha         1 1K5       0.203000
     22 H3           4.9550    -0.6270     2.9100 ha         1 1K5       0.122000
     23 H4           3.5900    -0.2340     4.9600 ha         1 1K5       0.117000
     24 H5           1.1260     0.1930     4.7450 ha         1 1K5       0.139000
     25 H6          -0.0040    -0.5170    -2.1060 ha         1 1K5       0.203000
     26 H7          -2.9040     0.2530     1.9040 ha         1 1K5       0.139000
     27 H8          -2.4790    -0.5160    -2.3300 ha         1 1K5       0.122000
     28 H9           3.0670     0.8920    -0.6930 h1         1 1K5       0.045700
     29 H10          1.5780     0.9140    -1.7420 h1         1 1K5       0.045700
@<TRIPOS>BOND
     1     1     9 1   
     2     1    11 ar  
     3     1    12 ar  
     4     2    13 ar  
     5     2    14 ar  
     6     2    20 1   
     7     3     4 ar  
     8     3     8 ar  
     9     3    21 1   
    10     4     5 ar  
    11     4    22 1   
    12     5     6 ar  
    13     5    23 1   
    14     6     7 ar  
    15     6    24 1   
    16     7     8 ar  
    17     7    10 1   
    18     8     9 1   
    19     9    16 1   
    20    10    11 1   
    21    10    15 2   
    22    11    13 ar  
    23    12    14 ar  
    24    12    25 1   
    25    13    26 1   
    26    14    27 1   
    27    16    19 1   
    28    16    28 1   
    29    16    29 1   
    30    17    19 1   
    31    18    19 1   
@<TRIPOS>SUBSTRUCTURE
     1 1K5         1 TEMP              0 ****  ****    0 ROOT
