@<TRIPOS>MOLECULE
molecule
   25    24     1     0     0
SMALL
bcc


@<TRIPOS>ATOM
      1 O40          0.0000     0.0000     0.0000 o          1 1K6      -0.549100
      2 C39          1.2070     0.0000     0.0000 c          1 1K6       0.603900
      3 C34          1.9610     0.0000     1.3050 c3         1 1K6      -0.158700
      4 C35          2.8410    -1.2490     1.3860 c3         1 1K6      -0.067700
      5 C37          1.9620    -2.4990     1.3040 c3         1 1K6      -0.085400
      6 C38          2.8480    -3.7440     1.2600 c3         1 1K6      -0.092100
      7 C36          3.6050    -1.2500     2.7110 c3         1 1K6      -0.089100
      8 C32          2.8400     1.2500     1.3880 c3         1 1K6       0.043100
      9 O33          3.6900     1.3100     0.2400 oh         1 1K6      -0.626800
     10 C30          1.9670     2.4770     1.4310 c          1 1K6       0.862600
     11 O31          1.9970     3.2720     0.5230 o          1 1K6      -0.833800
     12 H2           1.7490     0.0270    -0.9380 h4         1 1K6      -0.005800
     13 H4           1.2570    -0.0010     2.1280 hc         1 1K6       0.099700
     14 H5           3.5450    -1.2490     0.5630 hc         1 1K6       0.055700
     15 H6           1.3540    -2.4550     0.4080 hc         1 1K6       0.043200
     16 H7           1.3180    -2.5450     2.1750 hc         1 1K6       0.043200
     17 H8           2.3550    -4.5180     0.6830 hc         1 1K6       0.024700
     18 H9           3.0210    -4.1010     2.2680 hc         1 1K6       0.024700
     19 H10          3.7950    -3.4970     0.7960 hc         1 1K6       0.024700
     20 H11          4.6370    -0.9700     2.5330 hc         1 1K6       0.031700
     21 H12          3.5690    -2.2400     3.1480 hc         1 1K6       0.031700
     22 H13          3.1510    -0.5390     3.3900 hc         1 1K6       0.031700
     23 H14          3.4460     1.2060     2.2840 h1         1 1K6       0.025700
     24 H15          4.3770     1.9390     0.3900 ho         1 1K6       0.396000
     25 OXT          1.1550     2.6850     2.4810 o          1 1K6      -0.833800
@<TRIPOS>BOND
     1     1     2 2
     2     2     3 1
     3     5     4 1
     4     5     6 1
     5     9     8 1
     6     4     3 1
     7     4     7 1
     8     3     8 1
     9     8    10 1
    10    10    11 1
    11     2    12 1
    12     3    13 1
    13     4    14 1
    14     5    15 1
    15     5    16 1
    16     6    17 1
    17     6    18 1
    18     6    19 1
    19     7    20 1
    20     7    21 1
    21     7    22 1
    22     8    23 1
    23     9    24 1
    24    10    25 1
@<TRIPOS>SUBSTRUCTURE
     1 1K6         1 TEMP              0 ****  ****    0 ROOT
