@<TRIPOS>MOLECULE
1K6
   25    24     1     0     0
SMALL
bcc


@<TRIPOS>ATOM
      1 O40        -1.8890    2.2630   -1.7710 o         1 1K6     -0.622100
      2 C39        -1.0280    2.0080   -0.9210 c         1 1K6      0.558700
      3 C34         2.7980   -0.3740    2.4150 cx        1 1K6     -0.100700
      4 C35         3.5360   -1.5920    1.9180 cx        1 1K6     -0.122700
      5 C37         2.8240   -2.9050    1.8640 c3        1 1K6     -0.050400
      6 C38         3.7790   -4.0580    1.6820 c3        1 1K6     -0.085100
      7 C36         3.8990   -0.9770    3.2430 cx        1 1K6     -0.146400
      8 C32         2.9830    0.9700    1.7610 c3        1 1K6      0.047100
      9 O33         4.2150    1.0440    1.0620 oh        1 1K6     -0.641800
     10 C30         1.7820    1.2860    0.8390 c         1 1K6      0.894600
     11 O31         2.0220    1.4090   -0.4000 o         1 1K6     -0.844300
     12 H2          0.0480    1.8530   -1.1660 h4        1 1K6      0.026700
     13 H4         -1.2790    1.9150    0.1580 h4        1 1K6      0.026700
     14 H5          1.7490   -0.4990    2.7560 hc        1 1K6      0.092700
     15 H6          4.2420   -1.4430    1.0760 hc        1 1K6      0.085700
     16 H7          2.2260   -3.0580    2.8020 hc        1 1K6      0.038700
     17 H8          2.0950   -2.8820    1.0090 hc        1 1K6      0.038700
     18 H9          4.3570   -3.9430    0.7330 hc        1 1K6      0.022367
     19 H10         3.2190   -5.0240    1.6400 hc        1 1K6      0.022367
     20 H11         4.5040   -4.1060    2.5290 hc        1 1K6      0.022367
     21 H12         3.6410   -1.5120    4.1730 hc        1 1K6      0.054700
     22 H13         4.8550   -0.4300    3.3210 hc        1 1K6      0.054700
     23 H14         3.0420    1.7560    2.5660 h1        1 1K6      0.046700
     24 H15         4.0020    1.0240    0.1140 ho        1 1K6      0.425000
     25 OXT         0.6360    1.4150    1.3500 o         1 1K6     -0.844300
@<TRIPOS>BOND
     1    1    2 2   
     2    2   12 1   
     3    2   13 1   
     4    3    4 1   
     5    3    7 1   
     6    3    8 1   
     7    3   14 1   
     8    4    5 1   
     9    4    7 1   
    10    4   15 1   
    11    5    6 1   
    12    5   16 1   
    13    5   17 1   
    14    6   18 1   
    15    6   19 1   
    16    6   20 1   
    17    7   21 1   
    18    7   22 1   
    19    8    9 1   
    20    8   10 1   
    21    8   23 1   
    22    9   24 1   
    23   10   11 1   
    24   10   25 1   
@<TRIPOS>SUBSTRUCTURE
     1 1K6         1 TEMP              0 ****  ****    0 ROOT
