@<TRIPOS>MOLECULE
molecule
   37    38     1     0     0
SMALL
bcc


@<TRIPOS>ATOM
      1 N29          0.0000     0.0000     0.0000 nz         1 1K7      -0.777600
      2 C28          1.4690     0.0000     0.0000 cx         1 1K7       0.000500
      3 C27          2.1760     0.0000     1.3560 cx         1 1K7      -0.052400
      4 C26          2.1750    -1.2640     0.4940 cx         1 1K7      -0.170700
      5 C25          1.2970    -2.4310     0.9500 c3         1 1K7      -0.097400
      6 C9           2.1820    -3.6330     1.2860 c3         1 1K7       0.115500
      7 C8           1.3180    -4.7580     1.8600 c3         1 1K7      -0.113400
      8 C7           2.2150    -5.9120     2.3110 c3         1 1K7      -0.032100
      9 C6           1.3640    -7.0200     2.8760 ca         1 1K7      -0.132300
     10 C1           0.8890    -8.0180     2.0470 ca         1 1K7      -0.119500
     11 C2           0.1080    -9.0340     2.5670 ca         1 1K7      -0.108500
     12 C3          -0.1970    -9.0510     3.9150 ca         1 1K7      -0.092000
     13 C4           0.2790    -8.0520     4.7440 ca         1 1K7      -0.108500
     14 C5           1.0640    -7.0400     4.2250 ca         1 1K7      -0.119500
     15 N10          2.8510    -4.1060     0.0650 nz         1 1K7      -0.816600
     16 H22         -0.3340    -0.2700     0.9040 hn         1 1K7       0.467133
     17 H23          1.9910     0.5350    -0.7840 hx         1 1K7       0.178700
     18 H24          1.5260    -0.0250     2.2220 hc         1 1K7       0.128200
     19 H25          3.1140     0.5390     1.3940 hc         1 1K7       0.128200
     20 H26          3.1170    -1.4790     0.0020 hc         1 1K7       0.115700
     21 H27          0.6100    -2.6980     0.1570 hc         1 1K7       0.082200
     22 H28          0.7360    -2.1380     1.8300 hc         1 1K7       0.082200
     23 H29          2.9270    -3.3410     2.0160 hx         1 1K7       0.129700
     24 H30          0.6310    -5.1100     1.0990 hc         1 1K7       0.091200
     25 H31          2.7770    -6.2850     1.4630 hc         1 1K7       0.047200
     26 H32          1.1280    -8.0050     0.9910 ha         1 1K7       0.122500
     27 H33         -0.2650    -9.8170     1.9170 ha         1 1K7       0.154000
     28 H34         -0.8110    -9.8450     4.3220 ha         1 1K7       0.158000
     29 H35          0.0410    -8.0660     5.8010 ha         1 1K7       0.154000
     30 H36          1.4370    -6.2570     4.8750 ha         1 1K7       0.122500
     31 H37          2.5960    -3.5170    -0.7040 hn         1 1K7       0.463133
     32 H2           3.8430    -4.0740     0.1950 hn         1 1K7       0.463133
     33 H1          -0.3340     0.9180    -0.2180 hn         1 1K7       0.467133
     34 H3           0.7560    -4.3850     2.7080 hc         1 1K7       0.091200
     35 H4           2.9010    -5.5600     3.0710 hc         1 1K7       0.047200
     36 H293        -0.3340    -0.6570    -0.6780 hn         1 1K7       0.467133
     37 H103         2.5830    -5.0530    -0.1170 hn         1 1K7       0.463133
@<TRIPOS>BOND
     1    14    13 ar  
     2    14     9 ar  
     3    13    12 ar  
     4     8     9 1   
     5     8     7 1   
     6     9    10 ar  
     7    12    11 ar  
     8     6     7 1   
     9     6     5 1   
    10     6    15 1   
    11    10    11 ar  
    12     5     4 1   
    13     3     4 1   
    14     3     2 1   
    15     1     2 1   
    16     4     2 1   
    17     1    16 1   
    18     2    17 1   
    19     3    18 1   
    20     3    19 1   
    21     4    20 1   
    22     5    21 1   
    23     5    22 1   
    24     6    23 1   
    25     7    24 1   
    26     8    25 1   
    27    10    26 1   
    28    11    27 1   
    29    12    28 1   
    30    13    29 1   
    31    14    30 1   
    32    15    31 1   
    33    15    32 1   
    34     1    33 1   
    35     7    34 1   
    36     8    35 1   
    37    36     1 1   
    38    37    15 1   
@<TRIPOS>SUBSTRUCTURE
     1 1K7         1 TEMP              0 ****  ****    0 ROOT
