@<TRIPOS>MOLECULE
1K7
   37    38     1     0     0
SMALL
bcc


@<TRIPOS>ATOM
      1 N29         -0.1870    -1.0810    -0.2020 nz         1 1K7      -0.804600
      2 C28          0.9430    -0.5230     0.5500 cx         1 1K7       0.020500
      3 C27          1.3270    -1.0580     1.9090 cx         1 1K7      -0.093400
      4 C26          2.2710    -1.2430     0.7510 cx         1 1K7      -0.127700
      5 C25          2.5550    -2.6070     0.2090 c3         1 1K7      -0.100400
      6 C9           3.6770    -3.3210     0.9800 c3         1 1K7       0.130500
      7 C8           3.5880    -4.8400     0.7730 c3         1 1K7      -0.117400
      8 C7           2.5350    -5.4500     1.6860 c3         1 1K7      -0.013100
      9 C6           2.4580    -6.9210     1.4780 ca         1 1K7      -0.137300
     10 C1           1.9020    -7.4380     0.3010 ca         1 1K7      -0.121000
     11 C2           1.8100    -8.8150     0.1150 ca         1 1K7      -0.111500
     12 C3           2.2710    -9.6870     1.1030 ca         1 1K7      -0.093000
     13 C4           2.8220    -9.1760     2.2790 ca         1 1K7      -0.111500
     14 C5           2.9170    -7.7970     2.4670 ca         1 1K7      -0.121000
     15 N10          5.0420    -2.8180     0.5800 nz         1 1K7      -0.845600
     16 H22         -0.2600    -2.0970    -0.0760 hn         1 1K7       0.473800
     17 H23          0.9850     0.5850     0.3810 hx         1 1K7       0.168700
     18 H24          1.5630    -0.3180     2.7030 hc         1 1K7       0.130700
     19 H25          0.8060    -1.9440     2.3260 hc         1 1K7       0.130700
     20 H26          3.1530    -0.5660     0.6940 hc         1 1K7       0.111700
     21 H27          1.6480    -3.2680     0.3010 hc         1 1K7       0.088200
     22 H28          2.8030    -2.5430    -0.8860 hc         1 1K7       0.088200
     23 H29          3.5720    -3.0900     2.0850 hx         1 1K7       0.120700
     24 H30          3.3400    -5.0680    -0.2980 hc         1 1K7       0.086700
     25 H31          1.5320    -4.9920     1.4730 hc         1 1K7       0.046700
     26 H32          1.5290    -6.7560    -0.4770 ha         1 1K7       0.123000
     27 H33          1.3690    -9.2180    -0.8110 ha         1 1K7       0.155500
     28 H34          2.1950   -10.7760     0.9570 ha         1 1K7       0.161000
     29 H35          3.1810    -9.8620     3.0630 ha         1 1K7       0.155500
     30 H36          3.3450    -7.4040     3.4020 ha         1 1K7       0.123000
     31 H37          5.2280    -3.0440    -0.4030 hn         1 1K7       0.467133
     32 H2           5.1080    -1.8060     0.7120 hn         1 1K7       0.467133
     33 H1          -1.0600    -0.6460     0.1340 hn         1 1K7       0.473800
     34 H3           4.5720    -5.3350     1.0040 hc         1 1K7       0.086700
     35 H4           2.7880    -5.2250     2.7570 hc         1 1K7       0.046700
     36 H293        -0.0800    -0.8730    -1.2040 hn         1 1K7       0.473800
     37 H103         5.7540    -3.2820     1.1600 hn         1 1K7       0.467133
@<TRIPOS>BOND
     1     1     2 1   
     2     1    16 1   
     3     1    33 1   
     4     1    36 1   
     5     2     3 1   
     6     2     4 1   
     7     2    17 1   
     8     3     4 1   
     9     3    18 1   
    10     3    19 1   
    11     4     5 1   
    12     4    20 1   
    13     5     6 1   
    14     5    21 1   
    15     5    22 1   
    16     6     7 1   
    17     6    15 1   
    18     6    23 1   
    19     7     8 1   
    20     7    24 1   
    21     7    34 1   
    22     8     9 1   
    23     8    25 1   
    24     8    35 1   
    25     9    10 ar  
    26     9    14 ar  
    27    10    11 ar  
    28    10    26 1   
    29    11    12 ar  
    30    11    27 1   
    31    12    13 ar  
    32    12    28 1   
    33    13    14 ar  
    34    13    29 1   
    35    14    30 1   
    36    15    31 1   
    37    15    32 1   
    38    15    37 1   
@<TRIPOS>SUBSTRUCTURE
     1 1K7         1 TEMP              0 ****  ****    0 ROOT
