@<TRIPOS>MOLECULE
1K7
   37    38     1     0     0
SMALL
bcc


@<TRIPOS>ATOM
      1 N29          0.0000     0.0000     0.0000 nz         1 1K7       0.142400
      2 C28          1.4690     0.0000     0.0000 cx         1 1K7      -0.194500
      3 C27          2.1760     0.0000     1.3560 cx         1 1K7       0.046600
      4 C26          2.1750    -1.2640     0.4940 cx         1 1K7      -0.132700
      5 C25          1.2970    -2.4310     0.9500 c3         1 1K7      -0.017400
      6 C9           2.1820    -3.6330     1.2860 c3         1 1K7      -0.059500
      7 C8           1.3180    -4.7580     1.8600 c3         1 1K7      -0.047400
      8 C7           2.2150    -5.9120     2.3110 c3         1 1K7       0.044900
      9 C6           1.3640    -7.0200     2.8760 ca         1 1K7      -0.151300
     10 C1           0.8890    -8.0180     2.0470 ca         1 1K7      -0.091000
     11 C2           0.1080    -9.0340     2.5670 ca         1 1K7      -0.076500
     12 C3          -0.1970    -9.0510     3.9150 ca         1 1K7      -0.058000
     13 C4           0.2790    -8.0520     4.7440 ca         1 1K7      -0.076500
     14 C5           1.0640    -7.0400     4.2250 ca         1 1K7      -0.091000
     15 N10          2.8510    -4.1060     0.0650 nz         1 1K7       0.048400
     16 H22         -0.3340    -0.2700     0.9040 hn         1 1K7       0.226800
     17 H23          1.9910     0.5350    -0.7840 hx         1 1K7       0.150700
     18 H24          1.5260    -0.0250     2.2220 hc         1 1K7       0.086700
     19 H25          3.1140     0.5390     1.3940 hc         1 1K7       0.086700
     20 H26          3.1170    -1.4790     0.0020 hc         1 1K7       0.084700
     21 H27          0.6100    -2.6980     0.1570 hc         1 1K7       0.048700
     22 H28          0.7360    -2.1380     1.8300 hc         1 1K7       0.048700
     23 H29          2.9270    -3.3410     2.0160 hx         1 1K7       0.105700
     24 H30          0.6310    -5.1100     1.0990 hc         1 1K7       0.057700
     25 H31          2.7770    -6.2850     1.4630 hc         1 1K7       0.015200
     26 H32          1.1280    -8.0050     0.9910 ha         1 1K7       0.098000
     27 H33         -0.2650    -9.8170     1.9170 ha         1 1K7       0.121500
     28 H34         -0.8110    -9.8450     4.3220 ha         1 1K7       0.124000
     29 H35          0.0410    -8.0660     5.8010 ha         1 1K7       0.121500
     30 H36          1.4370    -6.2570     4.8750 ha         1 1K7       0.098000
     31 H37          2.5960    -3.5170    -0.7040 hn         1 1K7       0.237800
     32 H2           3.8430    -4.0740     0.1950 hn         1 1K7       0.237800
     33 H1          -0.3340     0.9180    -0.2180 hn         1 1K7       0.226800
     34 H3           0.7560    -4.3850     2.7080 hc         1 1K7       0.057700
     35 H4           2.9010    -5.5600     3.0710 hc         1 1K7       0.015200
     36 H293        -0.3340    -0.6570    -0.6780 hn         1 1K7       0.226800
     37 H103         2.5830    -5.0530    -0.1170 hn         1 1K7       0.237800
@<TRIPOS>BOND
     1     1     2 1   
     2     1    16 1   
     3     1    33 1   
     4     1    36 1   
     5     2     3 1   
     6     2     4 1   
     7     2    17 1   
     8     3     4 1   
     9     3    18 1   
    10     3    19 1   
    11     4     5 1   
    12     4    20 1   
    13     5     6 1   
    14     5    21 1   
    15     5    22 1   
    16     6     7 1   
    17     6    15 1   
    18     6    23 1   
    19     7     8 1   
    20     7    24 1   
    21     7    34 1   
    22     8     9 1   
    23     8    25 1   
    24     8    35 1   
    25     9    10 ar  
    26     9    14 ar  
    27    10    11 ar  
    28    10    26 1   
    29    11    12 ar  
    30    11    27 1   
    31    12    13 ar  
    32    12    28 1   
    33    13    14 ar  
    34    13    29 1   
    35    14    30 1   
    36    15    31 1   
    37    15    32 1   
    38    15    37 1   
@<TRIPOS>SUBSTRUCTURE
     1 1K7         1 TEMP              0 ****  ****    0 ROOT
