@<TRIPOS>MOLECULE
molecule
   50    53     1     0     0
SMALL
bcc


@<TRIPOS>ATOM
      1 FAD          0.0000     0.0000     0.0000 f          1 1K9      -0.223633
      2 CBE          1.3990     0.0000     0.0000 c3         1 1K9       0.675200
      3 FAE          1.8650     0.0000     1.3190 f          1 1K9      -0.223633
      4 FAF          1.8660    -1.1410    -0.6590 f          1 1K9      -0.223633
      5 CAZ          1.9010     1.2310    -0.7090 ca         1 1K9      -0.164300
      6 CAO          2.1310     2.3930     0.0020 ca         1 1K9      -0.118000
      7 CAJ          2.1370     1.1950    -2.0710 ca         1 1K9      -0.098000
      8 CAG          2.5980     2.3230    -2.7270 ca         1 1K9      -0.115000
      9 CAI          2.8250     3.4880    -2.0220 ca         1 1K9      -0.099000
     10 CAX          2.5930     3.5270    -0.6530 ca         1 1K9       0.067600
     11 NAS          2.8220     4.7060     0.0640 ns         1 1K9      -0.488100
     12 CAW          2.6010     5.9020    -0.5170 c          1 1K9       0.782100
     13 OAA          2.1140     5.9560    -1.6300 o          1 1K9      -0.636100
     14 NAT          2.9180     7.0370     0.1350 ns         1 1K9      -0.485100
     15 CBB          2.6010     8.2790    -0.4260 ca         1 1K9       0.054600
     16 CAP          2.6150     8.4450    -1.8030 ca         1 1K9      -0.023000
     17 CBA          2.3020     9.6710    -2.3560 ca         1 1K9      -0.298500
     18 SBF          2.3220     9.8750    -4.1060 sy         1 1K9       1.427200
     19 OAB          2.5170    11.2620    -4.3470 o          1 1K9      -0.634300
     20 OAC          3.1850     8.8690    -4.6180 o          1 1K9      -0.634300
     21 NAU          0.8030     9.5140    -4.6590 n7         1 1K9      -0.874100
     22 CBD         -0.3350    10.3530    -4.2770 cx         1 1K9       0.173500
     23 CAQ         -1.6830     9.6620    -4.0630 cx         1 1K9      -0.148400
     24 CAR         -1.4570    10.5310    -5.3010 cx         1 1K9      -0.148400
     25 CAL          1.9730    10.7410    -1.5430 ca         1 1K9      -0.048000
     26 CAM          1.9550    10.5910    -0.1700 ca         1 1K9      -0.124000
     27 CBC          2.2630     9.3570     0.3990 ca         1 1K9       0.002000
     28 CAY          2.2390     9.1890     1.8720 cc         1 1K9      -0.084000
     29 CAK          2.8840    10.0670     2.7420 cd         1 1K9      -0.146000
     30 CAH          2.7560     9.7710     4.0340 cc         1 1K9      -0.069100
     31 SAV          1.7830     8.3200     4.2230 ss         1 1K9      -0.151800
     32 CAN          1.5890     8.1790     2.4800 cd         1 1K9      -0.069100
     33 H1           1.9490     2.4200     1.0700 ha         1 1K9       0.145000
     34 H2           1.9590     0.2820    -2.6270 ha         1 1K9       0.148000
     35 H3           2.7800     2.2910    -3.7950 ha         1 1K9       0.146000
     36 H4           3.1860     4.3710    -2.5360 ha         1 1K9       0.170000
     37 H5           3.1850     4.6620     0.9960 hn         1 1K9       0.323500
     38 H6           3.4210     6.9930     0.9990 hn         1 1K9       0.329500
     39 H7           2.9090     7.6220    -2.4440 ha         1 1K9       0.188000
     40 H8           0.6660     8.7340    -5.2710 hn         1 1K9       0.460800
     41 H9          -0.1610    11.2130    -3.6410 h1         1 1K9       0.106700
     42 H10         -1.6930     8.5930    -4.2390 hc         1 1K9       0.079700
     43 H11         -2.3150    10.0950    -3.2970 hc         1 1K9       0.079700
     44 H12         -1.3290     9.9940    -6.2330 hc         1 1K9       0.079700
     45 H13         -1.9500    11.4960    -5.2910 hc         1 1K9       0.079700
     46 H14          1.7310    11.7000    -1.9840 ha         1 1K9       0.151000
     47 H15          1.6950    11.4300     0.4640 ha         1 1K9       0.144000
     48 H16          3.4460    10.9250     2.3940 ha         1 1K9       0.157000
     49 H17          3.1880    10.3410     4.8480 h4         1 1K9       0.176000
     50 H18          1.0320     7.4000     1.9740 h4         1 1K9       0.181000
@<TRIPOS>BOND
     1    30    31 1
     2    30    29 2
     3    31    32 1
     4    29    28 1
     5    28    32 2
     6    28    27 1
     7     9     8 ar
     8     9    10 ar
     9     8     7 ar
    10    11    10 1
    11    11    12 1
    12    14    12 1
    13    14    15 1
    14    10     6 ar
    15    27    15 ar
    16    27    26 ar
    17     7     5 ar
    18    12    13 2
    19    15    16 ar
    20    26    25 ar
    21     6     5 ar
    22     5     2 1
    23    16    17 ar
    24    25    17 ar
    25     1     2 1
    26     2     3 1
    27     2     4 1
    28    17    18 1
    29    20    18 2
    30    18    19 2
    31    18    21 1
    32    21    22 1
    33    22    23 1
    34    22    24 1
    35    23    24 1
    36     6    33 1
    37     7    34 1
    38     8    35 1
    39     9    36 1
    40    11    37 1
    41    14    38 1
    42    16    39 1
    43    21    40 1
    44    22    41 1
    45    23    42 1
    46    23    43 1
    47    24    44 1
    48    24    45 1
    49    25    46 1
    50    26    47 1
    51    29    48 1
    52    30    49 1
    53    32    50 1
@<TRIPOS>SUBSTRUCTURE
     1 1K9         1 TEMP              0 ****  ****    0 ROOT
