@<TRIPOS>MOLECULE
1K9
   51    54     1     0     0
SMALL
bcc


@<TRIPOS>ATOM
      1 FAD          0.8770     2.0340    -1.1030 f          1 1K9      -0.234967
      2 CBE          2.1990     1.6670    -1.1610 c3         1 1K9       0.690200
      3 FAE          2.7380     2.1230     0.0140 f          1 1K9      -0.234967
      4 FAF          2.7290     2.5030    -2.1210 f          1 1K9      -0.234967
      5 CAZ          2.4270     0.1840    -1.4380 ca         1 1K9      -0.147300
      6 CAO          2.3990    -0.2520    -2.7630 ca         1 1K9      -0.103000
      7 CAJ          2.6470    -0.7040    -0.3880 ca         1 1K9      -0.082000
      8 CAG          2.8490    -2.0550    -0.6760 ca         1 1K9      -0.102000
      9 CAI          2.8510    -2.5120    -1.9890 ca         1 1K9      -0.134000
     10 CAX          2.6340    -1.6070    -3.0580 ca         1 1K9       0.052600
     11 NAS          2.6470    -2.1100    -4.3770 ns         1 1K9      -0.455100
     12 CAW          2.9010    -1.3350    -5.5030 c          1 1K9       0.799100
     13 OAA          3.0680    -0.0850    -5.4450 o          1 1K9      -0.699100
     14 NAT          2.9340    -1.9790    -6.7690 ns         1 1K9      -0.468100
     15 CBB          3.3220    -1.2020    -7.8770 ca         1 1K9       0.043600
     16 CAP          2.7840     0.0860    -8.0080 ca         1 1K9      -0.023000
     17 CBA          3.3530     1.0370    -8.8740 ca         1 1K9      -0.517500
     18 SBF          2.9480     2.5830    -8.6690 sy         1 1K9       1.493200
     19 OAB          3.8160     3.4750    -9.2600 o          1 1K9      -0.572800
     20 OAC          1.5950     2.8380    -8.5980 o          1 1K9      -0.572800
     21 NAU          3.3890     2.6410    -6.8030 ny         1 1K9      -0.661900
     22 CBD          3.9710     3.9160    -6.4030 cx         1 1K9      -0.009500
     23 CAQ          4.1410     4.2880    -4.9420 cx         1 1K9      -0.101400
     24 CAR          3.1260     5.0080    -5.7720 cx         1 1K9      -0.101400
     25 CAL          4.3010     0.5870    -9.8100 ca         1 1K9       0.021000
     26 CAM          4.6880    -0.7460    -9.8350 ca         1 1K9      -0.136000
     27 CBC          4.2550    -1.6550    -8.8540 ca         1 1K9       0.102000
     28 CAY          4.7610    -3.0090    -8.8700 cc         1 1K9      -0.139000
     29 CAK          4.7980    -3.8000   -10.0670 cc         1 1K9      -0.124000
     30 CAH          5.3490    -5.0410    -9.8280 cd         1 1K9      -0.179100
     31 SAV          5.8120    -5.2150    -8.2410 ss         1 1K9       0.165200
     32 CAN          5.3000    -3.7090    -7.7950 cd         1 1K9      -0.199100
     33 H1           2.2020     0.4830    -3.5600 ha         1 1K9       0.167000
     34 H2           2.6640    -0.3440     0.6540 ha         1 1K9       0.168000
     35 H3           3.0150    -2.7690     0.1470 ha         1 1K9       0.159000
     36 H4           3.0200    -3.5830    -2.1840 ha         1 1K9       0.145000
     37 H5           2.4950    -3.0900    -4.4720 hn         1 1K9       0.336500
     38 H6           3.0620    -2.9640    -6.8390 hn         1 1K9       0.341500
     39 H7           1.9210     0.3790    -7.3790 ha         1 1K9       0.169000
     40 H8           2.5390     2.4730    -6.2590 hn         1 1K9       0.458300
     41 H9           4.7760     4.2120    -7.1200 hx         1 1K9       0.146700
     42 H10          3.7920     3.5940    -4.1520 hc         1 1K9       0.107950
     43 H11          5.0780     4.8010    -4.6520 hc         1 1K9       0.107950
     44 H12          2.0510     4.8320    -5.5790 hc         1 1K9       0.107950
     45 H13          3.3180     6.0480    -6.0990 hc         1 1K9       0.107950
     46 H14          4.7500     1.3030   -10.5220 ha         1 1K9       0.171000
     47 H15          5.3900    -1.0990   -10.6100 ha         1 1K9       0.175000
     48 H16          4.4210    -3.4480   -11.0310 ha         1 1K9       0.169000
     49 H17          5.4770    -5.8240   -10.5780 h4         1 1K9       0.195000
     50 H18          5.4370    -3.3120    -6.7890 h4         1 1K9       0.174000
     51 HAU2         4.0330     1.8880    -6.5440 hn         1 1K9       0.458300
@<TRIPOS>BOND
     1     1     2 1   
     2     2     3 1   
     3     2     4 1   
     4     2     5 1   
     5     5     6 ar  
     6     5     7 ar  
     7     6    10 ar  
     8     6    33 1   
     9     7     8 ar  
    10     7    34 1   
    11     8     9 ar  
    12     8    35 1   
    13     9    10 ar  
    14     9    36 1   
    15    10    11 1   
    16    11    12 1   
    17    11    37 1   
    18    12    13 2   
    19    12    14 1   
    20    14    15 1   
    21    14    38 1   
    22    15    16 ar  
    23    15    27 ar  
    24    16    17 ar  
    25    16    39 1   
    26    17    18 1   
    27    17    25 ar  
    28    18    19 2   
    29    18    20 2   
    30    18    21 1   
    31    21    22 1   
    32    21    40 1   
    33    21    51 1   
    34    22    23 1   
    35    22    24 1   
    36    22    41 1   
    37    23    24 1   
    38    23    42 1   
    39    23    43 1   
    40    24    44 1   
    41    24    45 1   
    42    25    26 ar  
    43    25    46 1   
    44    26    27 ar  
    45    26    47 1   
    46    27    28 1   
    47    28    29 1   
    48    28    32 2   
    49    29    30 2   
    50    29    48 1   
    51    30    31 1   
    52    30    49 1   
    53    31    32 1   
    54    32    50 1   
@<TRIPOS>SUBSTRUCTURE
     1 1K9         1 TEMP              0 ****  ****    0 ROOT
