@<TRIPOS>MOLECULE
1KA
   15    14     1     0     0
SMALL
bcc


@<TRIPOS>ATOM
      1 C1         -0.1190    0.1640   -0.0010 c         1 1KA      0.569900
      2 O1          0.7680   -0.6320   -0.3050 o         1 1KA     -0.521100
      3 C2         -0.7810    0.1260    1.3530 c3        1 1KA      0.006400
      4 O2         -1.7450    1.1750    1.3710 os        1 1KA     -0.435600
      5 C3         -2.4240    1.2620    2.6240 c3        1 1KA      0.088400
      6 C4         -3.4450    2.3850    2.4730 c3        1 1KA      0.131400
      7 O4         -4.4750    2.0330    1.5730 oh        1 1KA     -0.596800
      8 H1         -0.4850    0.9510   -0.6940 h4        1 1KA      0.020200
      9 H2         -0.0190    0.2870    2.1630 h1        1 1KA      0.063200
     10 H3         -1.2860   -0.8640    1.5120 h1        1 1KA      0.063200
     11 H4         -1.6900    1.5010    3.4370 h1        1 1KA      0.043200
     12 H5         -2.9330    0.2870    2.8460 h1        1 1KA      0.043200
     13 H6         -2.9350    3.3250    2.1320 h1        1 1KA      0.056200
     14 H7         -3.9610    2.5610    3.4540 h1        1 1KA      0.056200
     15 H8         -4.0540    1.8380    0.7260 ho        1 1KA      0.411000
@<TRIPOS>BOND
     1    1    2 2   
     2    1    3 1   
     3    1    8 1   
     4    3    4 1   
     5    3    9 1   
     6    3   10 1   
     7    4    5 1   
     8    5    6 1   
     9    5   11 1   
    10    5   12 1   
    11    6    7 1   
    12    6   13 1   
    13    6   14 1   
    14    7   15 1   
@<TRIPOS>SUBSTRUCTURE
     1 1KA         1 TEMP              0 ****  ****    0 ROOT
