@<TRIPOS>MOLECULE
molecule
   15    14     1     0     0
SMALL
bcc


@<TRIPOS>ATOM
      1 C1           0.0000     0.0000     0.0000 c          1 1KA       0.582900
      2 O1           1.2080     0.0000     0.0000 o          1 1KA      -0.513100
      3 C2          -0.7530     0.0000     1.3050 c3         1 1KA       0.017400
      4 O2          -1.6610     1.1030     1.3310 os         1 1KA      -0.411600
      5 C3          -2.4300     1.1960     2.5320 c3         1 1KA       0.143400
      6 C4          -3.3620     2.4070     2.4490 c3         1 1KA       0.143400
      7 O4          -4.3160     2.2030     1.4040 oh         1 1KA      -0.600800
      8 H1          -0.5410    -0.0310    -0.9380 h4         1 1KA       0.010200
      9 H2          -1.3070    -0.9260     1.4020 h1         1 1KA       0.047200
     10 H3          -0.0530     0.0900     2.1260 h1         1 1KA       0.047200
     11 H4          -3.0190     0.2950     2.6540 h1         1 1KA       0.034700
     12 H5          -1.7640     1.3100     3.3790 h1         1 1KA       0.034700
     13 H6          -3.8800     2.5290     3.3920 h1         1 1KA       0.031700
     14 H7          -2.7810     3.2960     2.2390 h1         1 1KA       0.031700
     15 H8          -4.9280     2.9200     1.3930 ho         1 1KA       0.402000
@<TRIPOS>BOND
     1     7     6 1   
     2     6     5 1   
     3     5     4 1   
     4     3     4 1   
     5     3     1 1   
     6     1     2 2   
     7     1     8 1   
     8     3     9 1   
     9     3    10 1   
    10     5    11 1   
    11     5    12 1   
    12     6    13 1   
    13     6    14 1   
    14     7    15 1   
@<TRIPOS>SUBSTRUCTURE
     1 1KA         1 TEMP              0 ****  ****    0 ROOT
