@<TRIPOS>MOLECULE
1KA
   15    14     1     0     0
SMALL
bcc


@<TRIPOS>ATOM
      1 C1          -0.4830     0.0640     0.2810 c          1 1KA       0.560900
      2 O1           0.3150     0.7520    -0.3480 o          1 1KA      -0.497100
      3 C2          -0.4980    -0.1010     1.7740 c3         1 1KA       0.001400
      4 O2           0.6820     0.4790     2.3170 os         1 1KA      -0.397600
      5 C3           0.6300     0.6400     3.7280 c3         1 1KA       0.125400
      6 C4          -0.2180     1.8430     4.1290 c3         1 1KA       0.091400
      7 O4          -1.5600     1.3970     4.2520 oh         1 1KA      -0.613800
      8 H1          -1.2970    -0.5050    -0.2270 h4         1 1KA      -0.007800
      9 H2          -1.4150     0.3990     2.1960 h1         1 1KA       0.064700
     10 H3          -0.5230    -1.1950     2.0340 h1         1 1KA       0.064700
     11 H4           1.7010     0.8230     4.0110 h1         1 1KA       0.062700
     12 H5           0.2470    -0.2900     4.2220 h1         1 1KA       0.062700
     13 H6           0.1400     2.2480     5.1130 h1         1 1KA       0.038700
     14 H7          -0.1500     2.6460     3.3470 h1         1 1KA       0.038700
     15 H8          -2.0840     2.1580     4.5260 ho         1 1KA       0.404000
@<TRIPOS>BOND
     1     1     2 2   
     2     1     3 1   
     3     1     8 1   
     4     3     4 1   
     5     3     9 1   
     6     3    10 1   
     7     4     5 1   
     8     5     6 1   
     9     5    11 1   
    10     5    12 1   
    11     6     7 1   
    12     6    13 1   
    13     6    14 1   
    14     7    15 1   
@<TRIPOS>SUBSTRUCTURE
     1 1KA         1 TEMP              0 ****  ****    0 ROOT
