@<TRIPOS>MOLECULE
1KC
   25    23     1     0     0
SMALL
bcc


@<TRIPOS>ATOM
      1 CAS        -1.2580   -0.6690   -0.6370 c3        1 1KC     -0.241000
      2 CBA         1.9910    0.5210    2.7580 c1        1 1KC      0.447000
      3 OAH         1.6400    1.6450    2.9220 o         1 1KC     -0.227000
      4 OAX         0.4330   -0.2960    1.0460 oh        1 1KC     -0.381000
      5 CBI        -0.9780   -0.2850    0.8080 c3        1 1KC      0.083000
      6 CAO        -1.6940   -1.1850    1.7580 c2        1 1KC     -0.317000
      7 CAM        -3.0080   -1.1430    2.0040 c2        1 1KC     -0.073000
      8 CAP        -4.0170   -0.2410    1.3740 c3        1 1KC      0.004000
      9 CAQ        -4.9330   -0.9830    0.5100 c2        1 1KC     -0.831000
     10 SAY        -6.4550   -1.3100    0.8650 ss        1 1KC      0.179000
     11 CAB        -6.5590   -2.8630    1.7160 c3        1 1KC     -0.432000
     12 H1         -0.8750   -1.6960   -0.8480 hc        1 1KC      0.081333
     13 H2         -0.7590    0.0460   -1.3310 hc        1 1KC      0.081333
     14 H35        -2.3640   -0.6540   -0.8100 hc        1 1KC      0.081333
     15 H36        -1.2620    0.7930    0.9820 h1        1 1KC      0.109000
     16 H38        -1.0510   -1.9270    2.2550 ha        1 1KC      0.091000
     17 H40        -3.4460   -1.8740    2.7080 ha        1 1KC      0.103000
     18 H41        -4.5760    0.2730    2.2060 hc        1 1KC      0.036000
     19 H42        -3.4840    0.5660    0.7930 hc        1 1KC      0.036000
     20 H43        -4.4950   -1.3310   -0.4280 h4        1 1KC      0.071000
     21 H44        -6.2590   -3.7130    1.0670 h1        1 1KC      0.043000
     22 H45        -7.6220   -2.9940    2.0160 h1        1 1KC      0.043000
     23 H46        -5.9190   -2.8820    2.6240 h1        1 1KC      0.043000
     24 OXT         2.4050   -0.5900    2.6360 o         1 1KC     -0.227000
     25 H3          0.7280   -1.2120    0.9940 ho        1 1KC      0.198000
@<TRIPOS>BOND
     1    1    5 1   
     2    1   12 1   
     3    1   13 1   
     4    1   14 1   
     5    2    3 1   
     6    2   24 1   
     7    4    5 1   
     8    4   25 1   
     9    5    6 1   
    10    5   15 1   
    11    6    7 1   
    12    6   16 1   
    13    7    8 1   
    14    7   17 1   
    15    8    9 1   
    16    8   18 1   
    17    8   19 1   
    18    9   10 1   
    19    9   20 1   
    20   10   11 1   
    21   11   21 1   
    22   11   22 1   
    23   11   23 1   
@<TRIPOS>SUBSTRUCTURE
     1 1KC         1 TEMP              0 ****  ****    0 ROOT
