@<TRIPOS>MOLECULE
molecule
   25    24     1     0     0
SMALL
bcc


@<TRIPOS>ATOM
      1 CAS          0.0000     0.0000     0.0000 c3         1 1KC      -0.182400
      2 CBA          1.5070     0.0000     0.0000 c          1 1KC       0.897600
      3 OAH          2.1110     0.0000     1.0470 o          1 1KC      -0.854800
      4 OAX         -0.1320    -1.2220     2.0810 oh         1 1KC      -0.597800
      5 CBI         -0.5100    -0.0010     1.4420 c3         1 1KC       0.192300
      6 CAO         -2.0110     0.1230     1.4440 c2         1 1KC      -0.167200
      7 CAM         -2.7420    -0.7690     2.0680 c2         1 1KC      -0.214200
      8 CAP         -4.2430    -0.6460     2.0690 c3         1 1KC      -0.028200
      9 CAQ         -4.8620    -1.9400     1.5370 c3         1 1KC       0.034700
     10 SAY         -6.6700    -1.7910     1.5390 ss         1 1KC      -0.392200
     11 CAB         -7.2120    -3.3950     0.8870 c3         1 1KC       0.006000
     12 H1          -0.3610     0.8850    -0.5100 hc         1 1KC       0.040200
     13 H2          -0.3610    -0.8840    -0.5120 hc         1 1KC       0.040200
     14 H35         -0.0780     0.8350     1.9780 h1         1 1KC       0.049700
     15 H36         -2.4870     0.9490     0.9290 ha         1 1KC       0.114000
     16 H38         -2.2650    -1.5950     2.5820 ha         1 1KC       0.144000
     17 H40         -4.5890    -0.4690     3.0800 hc         1 1KC       0.046700
     18 H41         -4.5380     0.1820     1.4370 hc         1 1KC       0.046700
     19 H42         -4.5680    -2.7680     2.1700 h1         1 1KC       0.061200
     20 H43         -4.5160    -2.1170     0.5260 h1         1 1KC       0.061200
     21 H44         -6.8580    -4.1870     1.5350 h1         1 1KC       0.054033
     22 H45         -8.2940    -3.4200     0.8430 h1         1 1KC       0.054033
     23 H46         -6.8080    -3.5350    -0.1090 h1         1 1KC       0.054033
     24 OXT          2.1790     0.0010    -1.1620 o          1 1KC      -0.854800
     25 H3           0.2490    -1.0320     2.9220 ho         1 1KC       0.395000
@<TRIPOS>BOND
     1     4     5 1
     2     5     1 1
     3     5     6 1
     4     7     8 1
     5     7     6 2
     6     8     9 1
     7     9    10 1
     8     1     2 1
     9     2     3 1
    10    10    11 1
    11     1    12 1
    12     1    13 1
    13     5    14 1
    14     6    15 1
    15     7    16 1
    16     8    17 1
    17     8    18 1
    18     9    19 1
    19     9    20 1
    20    11    21 1
    21    11    22 1
    22    11    23 1
    23     4    25 1
    24     2    24 1
@<TRIPOS>SUBSTRUCTURE
     1 1KC         1 TEMP              0 ****  ****    0 ROOT
