@<TRIPOS>MOLECULE
1KJ
   30    29     1     0     0
SMALL
bcc


@<TRIPOS>ATOM
      1 OA2          0.0000     0.0000     0.0000 o          1 1KJ      -0.814800
      2 C            1.3420     0.0000     0.0000 c          1 1KJ       0.956600
      3 OA1          1.9470     0.0000     1.0460 o          1 1KJ      -0.814800
      4 CA           2.0960    -0.0020    -1.3050 c3         1 1KJ      -0.203500
      5 N            3.4680     0.4720    -1.0790 nz         1 1KJ       0.080400
      6 CB           2.1340    -1.4220    -1.8720 c3         1 1KJ      -0.017400
      7 CG           2.7890    -1.4040    -3.2530 c3         1 1KJ      -0.055400
      8 CD           2.8260    -2.8240    -3.8190 c3         1 1KJ       0.188800
      9 NE           3.4540    -2.8060    -5.1440 nu         1 1KJ      -0.566200
     10 CZ           3.5990    -3.9750    -5.8520 c2         1 1KJ       0.559100
     11 NH2          3.1790    -5.1010    -5.3440 n2         1 1KJ      -0.829100
     12 NH1          4.1880    -3.9590    -7.0930 nu         1 1KJ      -0.287700
     13 OH           4.3370    -5.1630    -7.8230 os         1 1KJ      -0.205100
     14 C1           4.9640    -4.9980    -9.0960 c3         1 1KJ       0.236700
     15 H2           1.6000     0.6550    -2.0090 hx         1 1KJ       0.086700
     16 H3           3.4590     1.2100    -0.4030 hn         1 1KJ       0.211133
     17 H4           4.0300    -0.2830    -0.7400 hn         1 1KJ       0.211133
     18 H6           1.1230    -1.8040    -1.9560 hc         1 1KJ       0.058200
     19 H7           2.7060    -2.0600    -1.2090 hc         1 1KJ       0.058200
     20 H8           3.7990    -1.0220    -3.1690 hc         1 1KJ       0.006700
     21 H9           2.2160    -0.7660    -3.9160 hc         1 1KJ       0.006700
     22 H10          3.3980    -3.4620    -3.1570 h1         1 1KJ       0.025700
     23 H11          1.8150    -3.2060    -3.9040 h1         1 1KJ       0.025700
     24 H12          3.7620    -1.9400    -5.5390 hn         1 1KJ       0.281800
     25 H13          2.7500    -5.1130    -4.4400 hn         1 1KJ       0.329400
     26 H15          4.5110    -3.0950    -7.4820 hn         1 1KJ       0.270800
     27 H16          4.3720    -4.3260    -9.7060 h1         1 1KJ      -0.004300
     28 H17          5.9550    -4.5830    -8.9590 h1         1 1KJ      -0.004300
     29 H18          5.0410    -5.9600    -9.5890 h1         1 1KJ      -0.004300
     30 HN3          3.8510     0.8080    -1.9400 hn         1 1KJ       0.211133
@<TRIPOS>BOND
     1     1     2 1   
     2     2     3 1   
     3     2     4 1   
     4     4     5 1   
     5     4     6 1   
     6     4    15 1   
     7     5    16 1   
     8     5    17 1   
     9     5    30 1   
    10     6     7 1   
    11     6    18 1   
    12     6    19 1   
    13     7     8 1   
    14     7    20 1   
    15     7    21 1   
    16     8     9 1   
    17     8    22 1   
    18     8    23 1   
    19     9    10 1   
    20     9    24 1   
    21    10    11 2   
    22    10    12 1   
    23    11    25 1   
    24    12    13 1   
    25    12    26 1   
    26    13    14 1   
    27    14    27 1   
    28    14    28 1   
    29    14    29 1   
@<TRIPOS>SUBSTRUCTURE
     1 1KJ         1 TEMP              0 ****  ****    0 ROOT
