@<TRIPOS>MOLECULE
molecule
   30    29     1     0     0
SMALL
bcc


@<TRIPOS>ATOM
      1 OA2          0.0000     0.0000     0.0000 o          1 1KJ      -0.773800
      2 C            1.3420     0.0000     0.0000 c          1 1KJ       0.869600
      3 OA1          1.9470     0.0000     1.0460 o          1 1KJ      -0.773800
      4 CA           2.0960    -0.0020    -1.3050 c3         1 1KJ      -0.018500
      5 N            3.4680     0.4720    -1.0790 nz         1 1KJ      -0.791600
      6 CB           2.1340    -1.4220    -1.8720 c3         1 1KJ      -0.085400
      7 CG           2.7890    -1.4040    -3.2530 c3         1 1KJ      -0.125400
      8 CD           2.8260    -2.8240    -3.8190 c3         1 1KJ       0.272800
      9 NE           3.4540    -2.8060    -5.1440 nu         1 1KJ      -0.904200
     10 CZ           3.5990    -3.9750    -5.8520 c2         1 1KJ       0.875100
     11 NH2          3.1790    -5.1010    -5.3440 n2         1 1KJ      -0.949100
     12 NH1          4.1880    -3.9590    -7.0930 nu         1 1KJ      -0.760700
     13 OH           4.3370    -5.1630    -7.8230 os         1 1KJ      -0.146100
     14 C1           4.9640    -4.9980    -9.0960 c3         1 1KJ       0.103700
     15 H2           1.6000     0.6550    -2.0090 hx         1 1KJ       0.103700
     16 H3           3.4590     1.2100    -0.4030 hn         1 1KJ       0.439133
     17 H4           3.8490     0.8120    -1.9390 hn         1 1KJ       0.439133
     18 H6           1.1230    -1.8040    -1.9560 hc         1 1KJ       0.091700
     19 H7           2.7060    -2.0600    -1.2090 hc         1 1KJ       0.091700
     20 H8           3.7990    -1.0220    -3.1690 hc         1 1KJ       0.031200
     21 H9           2.2160    -0.7660    -3.9160 hc         1 1KJ       0.031200
     22 H10          1.8150    -3.2060    -3.9040 h1         1 1KJ       0.064200
     23 H11          3.3980    -3.4620    -3.1570 h1         1 1KJ       0.064200
     24 H12          3.7620    -1.9400    -5.5390 hn         1 1KJ       0.425800
     25 H13          3.2850    -5.9520    -5.8590 hn         1 1KJ       0.420400
     26 H15          4.5110    -3.0950    -7.4820 hn         1 1KJ       0.427800
     27 H16          5.9550    -4.5830    -8.9590 h1         1 1KJ       0.046700
     28 H17          4.3720    -4.3260    -9.7060 h1         1 1KJ       0.046700
     29 H18          5.0400    -5.9600    -9.5890 h1         1 1KJ       0.046700
     30 HN3          4.0290    -0.2820    -0.7360 hn         1 1KJ       0.439133
@<TRIPOS>BOND
     1    14    13 1
     2    13    12 1
     3    12    10 1
     4     8     9 1
     5     8     7 1
     6    10    11 2
     7    10     9 1
     8     3     2 1
     9     6     7 1
    10     6     4 1
    11     2     4 1
    12     2     1 1
    13     4     5 1
    14     4    15 1
    15     5    16 1
    16     5    17 1
    17     6    18 1
    18     6    19 1
    19     7    20 1
    20     7    21 1
    21     8    22 1
    22     8    23 1
    23     9    24 1
    24    11    25 1
    25    12    26 1
    26    14    27 1
    27    14    28 1
    28    14    29 1
    29    30     5 1
@<TRIPOS>SUBSTRUCTURE
     1 1KJ         1 TEMP              0 ****  ****    0 ROOT
