@<TRIPOS>MOLECULE
1KL
   55    57     1     0     0
SMALL
bcc


@<TRIPOS>ATOM
      1 C1           0.0970    -0.0380     0.0110 ce         1 1KL      -0.153900
      2 C2          -0.4540     0.4740    -1.1830 cg         1 1KL       0.229500
      3 C4           1.4880    -0.4910    -0.0210 c          1 1KL       0.655300
      4 O5           2.1280    -0.9620     0.9320 o          1 1KL      -0.558000
      5 O6           2.1120    -0.3700    -1.2290 os         1 1KL      -0.409900
      6 C7           3.4730    -0.8110    -1.2830 c3         1 1KL       0.125700
      7 C8          -0.5840    -0.1370     1.2030 c2         1 1KL       0.229200
      8 C10         -2.3330     0.0060     2.7930 c          1 1KL       0.710500
      9 C11         -1.2280    -0.5840     3.6350 c3         1 1KL      -0.196300
     10 C14         -2.7910     0.7680     0.4750 ca         1 1KL       0.042600
     11 C15         -2.8130     2.1550     0.2250 ca         1 1KL      -0.109500
     12 C16         -3.6910     2.6740    -0.7230 ca         1 1KL      -0.085000
     13 C17         -4.5590     1.8280    -1.4170 ca         1 1KL      -0.122600
     14 C18         -4.5630     0.4560    -1.1490 ca         1 1KL      -0.085000
     15 C19         -3.6830    -0.0790    -0.2120 ca         1 1KL      -0.109500
     16 C20         -5.5170     2.3610    -2.4350 c          1 1KL       0.676700
     17 N3          -0.8640     0.8920    -2.1900 n1         1 1KL      -0.372800
     18 N9          -1.9050     0.2310     1.4530 n          1 1KL      -0.315200
     19 S12          0.1980    -0.7740     2.6020 ss         1 1KL       0.010300
     20 O13         -3.4680     0.2720     3.1890 o          1 1KL      -0.536500
     21 O21         -6.7200     2.0480    -2.4090 o          1 1KL      -0.578100
     22 N22         -4.9610     3.2080    -3.3820 ns         1 1KL      -0.464100
     23 C23         -5.6190     3.8060    -4.4710 ca         1 1KL       0.059600
     24 C24         -7.0210     3.8650    -4.5890 ca         1 1KL      -0.165000
     25 C25         -7.6100     4.4950    -5.6830 ca         1 1KL      -0.104000
     26 C26         -6.8410     5.0870    -6.6870 ca         1 1KL      -0.089300
     27 C27         -5.4440     5.0280    -6.5680 ca         1 1KL      -0.104000
     28 C28         -4.8360     4.4030    -5.4890 ca         1 1KL      -0.165000
     29 C29         -7.4500     5.7740    -7.8790 c3         1 1KL      -0.005700
     30 C30         -6.9870     5.0810    -9.1580 c3         1 1KL      -0.085767
     31 C31         -7.0020     7.2340    -7.9070 c3         1 1KL      -0.085767
     32 C32         -8.9740     5.7460    -7.8480 c3         1 1KL      -0.085767
     33 H1           3.7620    -0.6190    -2.3460 h1         1 1KL       0.055367
     34 H2           3.5320    -1.8960    -1.0290 h1         1 1KL       0.055367
     35 H3           4.0940    -0.2140    -0.5730 h1         1 1KL       0.055367
     36 H4          -1.5580    -1.5690     4.0480 h1         1 1KL       0.124700
     37 H5          -1.0110     0.0960     4.4960 h1         1 1KL       0.124700
     38 H6          -2.1390     2.8360     0.7690 ha         1 1KL       0.149500
     39 H7          -3.7010     3.7600    -0.9100 ha         1 1KL       0.155000
     40 H8          -5.2730    -0.2000    -1.6790 ha         1 1KL       0.155000
     41 H9          -3.6960    -1.1620    -0.0140 ha         1 1KL       0.149500
     42 H10         -3.9680     3.3070    -3.3730 hn         1 1KL       0.323500
     43 H11         -7.6690     3.4090    -3.8220 ha         1 1KL       0.149500
     44 H12         -8.7100     4.5140    -5.7320 ha         1 1KL       0.134500
     45 H13         -4.8100     5.4830    -7.3450 ha         1 1KL       0.134500
     46 H14         -3.7360     4.3760    -5.4370 ha         1 1KL       0.149500
     47 H15         -5.8760     5.1270    -9.2500 hc         1 1KL       0.036478
     48 H16         -7.4380     5.5820   -10.0470 hc         1 1KL       0.036478
     49 H17         -7.3010     4.0100    -9.1520 hc         1 1KL       0.036478
     50 H18         -7.3280     7.7560    -6.9770 hc         1 1KL       0.036478
     51 H19         -7.4530     7.7530    -8.7870 hc         1 1KL       0.036478
     52 H20         -5.8910     7.3030    -7.9850 hc         1 1KL       0.036478
     53 H21         -9.3780     6.2670    -8.7500 hc         1 1KL       0.036478
     54 H22         -9.3480     4.6940    -7.8540 hc         1 1KL       0.036478
     55 H23         -9.3590     6.2660    -6.9390 hc         1 1KL       0.036478
@<TRIPOS>BOND
     1     1     2 1   
     2     1     3 1   
     3     1     7 2   
     4     2    17 3   
     5     3     4 2   
     6     3     5 1   
     7     5     6 1   
     8     6    33 1   
     9     6    34 1   
    10     6    35 1   
    11     7    18 1   
    12     7    19 1   
    13     8     9 1   
    14     8    18 1   
    15     8    20 2   
    16     9    19 1   
    17     9    36 1   
    18     9    37 1   
    19    10    11 ar  
    20    10    15 ar  
    21    10    18 1   
    22    11    12 ar  
    23    11    38 1   
    24    12    13 ar  
    25    12    39 1   
    26    13    14 ar  
    27    13    16 1   
    28    14    15 ar  
    29    14    40 1   
    30    15    41 1   
    31    16    21 2   
    32    16    22 1   
    33    22    23 1   
    34    22    42 1   
    35    23    24 ar  
    36    23    28 ar  
    37    24    25 ar  
    38    24    43 1   
    39    25    26 ar  
    40    25    44 1   
    41    26    27 ar  
    42    26    29 1   
    43    27    28 ar  
    44    27    45 1   
    45    28    46 1   
    46    29    30 1   
    47    29    31 1   
    48    29    32 1   
    49    30    47 1   
    50    30    48 1   
    51    30    49 1   
    52    31    50 1   
    53    31    51 1   
    54    31    52 1   
    55    32    53 1   
    56    32    54 1   
    57    32    55 1   
@<TRIPOS>SUBSTRUCTURE
     1 1KL         1 TEMP              0 ****  ****    0 ROOT
