@<TRIPOS>MOLECULE
molecule
   55    57     1     0     0
SMALL
bcc


@<TRIPOS>ATOM
      1 C1           0.0000     0.0000     0.0000 ce         1 1KL      -0.154900
      2 C2          -0.7160    -0.0010    -1.2400 cg         1 1KL       0.222500
      3 C4           1.4170     0.0000     0.0000 c          1 1KL       0.675300
      4 O5           2.0260     0.0000     1.0550 o          1 1KL      -0.570000
      5 O6           2.0930    -0.0020    -1.1680 os         1 1KL      -0.407900
      6 C7           3.5200    -0.0010    -1.0940 c3         1 1KL       0.137700
      7 C8          -0.6980     0.0070     1.2100 c2         1 1KL       0.225200
      8 C10         -2.5980    -0.1010     2.5530 c          1 1KL       0.705500
      9 C11         -1.5850     0.0700     3.6640 c3         1 1KL      -0.188300
     10 C14         -2.8520    -0.2610     0.2170 ca         1 1KL       0.019600
     11 C15         -3.4880     0.8500    -0.3280 ca         1 1KL      -0.111500
     12 C16         -4.2830     0.7110    -1.4430 ca         1 1KL      -0.072000
     13 C17         -4.4510    -0.5480    -2.0270 ca         1 1KL      -0.115600
     14 C18         -3.8100    -1.6610    -1.4780 ca         1 1KL      -0.072000
     15 C19         -3.0120    -1.5140    -0.3640 ca         1 1KL      -0.111500
     16 C20         -5.3030    -0.6990    -3.2230 c          1 1KL       0.675700
     17 N3          -1.2680    -0.0090    -2.2330 n1         1 1KL      -0.367800
     18 N9          -2.0460    -0.1170     1.3500 n          1 1KL      -0.276200
     19 S12          0.0020     0.1660     2.7730 ss         1 1KL      -0.028700
     20 O13         -3.7900    -0.2070     2.7440 o          1 1KL      -0.553500
     21 O21         -5.8590     0.2700    -3.7010 o          1 1KL      -0.588100
     22 N22         -5.4640    -1.9140    -3.7860 ns         1 1KL      -0.472100
     23 C23         -6.1890    -2.0440    -4.9740 ca         1 1KL       0.046600
     24 C24         -6.9550    -3.1790    -5.2020 ca         1 1KL      -0.138500
     25 C25         -7.6700    -3.3040    -6.3770 ca         1 1KL      -0.112500
     26 C26         -7.6240    -2.3000    -7.3260 ca         1 1KL      -0.083300
     27 C27         -6.8610    -1.1670    -7.1030 ca         1 1KL      -0.112500
     28 C28         -6.1470    -1.0340    -5.9280 ca         1 1KL      -0.138500
     29 C29         -8.4040    -2.4390    -8.6070 c3         1 1KL      -0.022700
     30 C30         -7.9300    -3.6840    -9.3610 c3         1 1KL      -0.081100
     31 C31         -9.8940    -2.5760    -8.2840 c3         1 1KL      -0.081100
     32 C32         -8.1830    -1.2010    -9.4780 c3         1 1KL      -0.081100
     33 H1           3.8460    -0.7680    -0.4010 h1         1 1KL       0.050033
     34 H2           3.9330    -0.2020    -2.0750 h1         1 1KL       0.050033
     35 H3           3.8630     0.9670    -0.7490 h1         1 1KL       0.050033
     36 H4          -2.0000    -0.2250     4.6200 h1         1 1KL       0.137200
     37 H5          -1.1970     1.0810     3.6870 h1         1 1KL       0.137200
     38 H6          -3.3610     1.8240     0.1280 ha         1 1KL       0.146000
     39 H7          -4.7770     1.5770    -1.8670 ha         1 1KL       0.150500
     40 H8          -3.9390    -2.6370    -1.9290 ha         1 1KL       0.150500
     41 H9          -2.5160    -2.3770     0.0630 ha         1 1KL       0.146000
     42 H10         -4.9790    -2.7060    -3.4130 hn         1 1KL       0.323500
     43 H11         -6.9920    -3.9660    -4.4580 ha         1 1KL       0.144000
     44 H12         -8.2680    -4.1890    -6.5550 ha         1 1KL       0.136500
     45 H13         -6.8260    -0.3820    -7.8480 ha         1 1KL       0.136500
     46 H14         -5.5530    -0.1460    -5.7510 ha         1 1KL       0.144000
     47 H15         -8.2050    -4.5710    -8.8020 hc         1 1KL       0.036700
     48 H16         -6.8530    -3.6480    -9.4750 hc         1 1KL       0.036700
     49 H17         -8.3960    -3.7140   -10.3380 hc         1 1KL       0.036700
     50 H18        -10.0860    -3.5590    -7.8720 hc         1 1KL       0.036700
     51 H19        -10.4740    -2.4450    -9.1900 hc         1 1KL       0.036700
     52 H20        -10.1770    -1.8200    -7.5620 hc         1 1KL       0.036700
     53 H21         -8.4030    -0.3100    -8.9020 hc         1 1KL       0.036700
     54 H22         -7.1510    -1.1710    -9.8080 hc         1 1KL       0.036700
     55 H23         -8.8360    -1.2440   -10.3410 hc         1 1KL       0.036700
@<TRIPOS>BOND
     1    21    16 2
     2    14    15 ar
     3    14    13 ar
     4    30    29 1
     5    15    10 ar
     6    25    24 ar
     7    25    26 ar
     8    24    23 ar
     9    32    29 1
    10    16    13 1
    11    16    22 1
    12    20     8 2
    13    13    12 ar
    14    29    26 1
    15    29    31 1
    16    26    27 ar
    17    23    22 1
    18    23    28 ar
    19     8    18 1
    20     8     9 1
    21    10    18 1
    22    10    11 ar
    23    18     7 1
    24     9    19 1
    25    27    28 ar
    26    12    11 ar
    27    17     2 3
    28     7    19 1
    29     7     1 2
    30     2     1 1
    31     1     3 1
    32     3     4 2
    33     3     5 1
    34     5     6 1
    35     6    33 1
    36     6    34 1
    37     6    35 1
    38     9    36 1
    39     9    37 1
    40    11    38 1
    41    12    39 1
    42    14    40 1
    43    15    41 1
    44    22    42 1
    45    24    43 1
    46    25    44 1
    47    27    45 1
    48    28    46 1
    49    30    47 1
    50    30    48 1
    51    30    49 1
    52    31    50 1
    53    31    51 1
    54    31    52 1
    55    32    53 1
    56    32    54 1
    57    32    55 1
@<TRIPOS>SUBSTRUCTURE
     1 1KL         1 TEMP              0 ****  ****    0 ROOT
