@<TRIPOS>MOLECULE
1KL
   55    57     1     0     0
SMALL
bcc


@<TRIPOS>ATOM
      1 C1           0.0000     0.0000     0.0000 ce         1 1KL      -0.104900
      2 C2          -0.7160    -0.0010    -1.2400 cg         1 1KL       0.215500
      3 C4           1.4170     0.0000     0.0000 c          1 1KL       0.729300
      4 O5           2.0260     0.0000     1.0550 o          1 1KL      -0.588000
      5 O6           2.0930    -0.0020    -1.1680 os         1 1KL      -0.398900
      6 C7           3.5200    -0.0010    -1.0940 c3         1 1KL       0.263700
      7 C8          -0.6980     0.0070     1.2100 c2         1 1KL       0.106200
      8 C10         -2.5980    -0.1010     2.5530 c          1 1KL       0.602500
      9 C11         -1.5850     0.0700     3.6640 c3         1 1KL      -0.110300
     10 C14         -2.8520    -0.2610     0.2170 ca         1 1KL      -0.141400
     11 C15         -3.4880     0.8500    -0.3280 ca         1 1KL      -0.075000
     12 C16         -4.2830     0.7110    -1.4430 ca         1 1KL      -0.043000
     13 C17         -4.4510    -0.5480    -2.0270 ca         1 1KL      -0.113600
     14 C18         -3.8100    -1.6610    -1.4780 ca         1 1KL      -0.043000
     15 C19         -3.0120    -1.5140    -0.3640 ca         1 1KL      -0.075000
     16 C20         -5.3030    -0.6990    -3.2230 c          1 1KL       0.581700
     17 N3          -1.2950    -0.0170    -2.2170 n1         1 1KL      -0.389800
     18 N9          -2.0460    -0.1170     1.3500 n          1 1KL       0.171800
     19 S12          0.0020     0.1660     2.7730 ss         1 1KL      -0.156700
     20 O13         -3.7900    -0.2070     2.7440 o          1 1KL      -0.594500
     21 O21         -5.8590     0.2700    -3.7010 o          1 1KL      -0.630100
     22 N22         -5.4640    -1.9140    -3.7860 ns         1 1KL      -0.031100
     23 C23         -6.1890    -2.0440    -4.9740 ca         1 1KL      -0.100400
     24 C24         -6.9550    -3.1790    -5.2020 ca         1 1KL      -0.109000
     25 C25         -7.6700    -3.3040    -6.3770 ca         1 1KL      -0.091000
     26 C26         -7.6240    -2.3000    -7.3260 ca         1 1KL      -0.085300
     27 C27         -6.8610    -1.1670    -7.1030 ca         1 1KL      -0.091000
     28 C28         -6.1470    -1.0340    -5.9280 ca         1 1KL      -0.109000
     29 C29         -8.4040    -2.4390    -8.6070 c3         1 1KL      -0.012700
     30 C30         -7.9300    -3.6840    -9.3610 c3         1 1KL       0.004900
     31 C31         -9.8940    -2.5760    -8.2840 c3         1 1KL       0.004900
     32 C32         -8.1830    -1.2010    -9.4780 c3         1 1KL       0.004900
     33 H1           3.8430    -0.7260    -0.3560 h1         1 1KL       0.003033
     34 H2           3.9320    -0.2620    -2.0610 h1         1 1KL       0.003033
     35 H3           3.8660     0.9850    -0.8080 h1         1 1KL       0.003033
     36 H4          -1.1970     1.0820     3.6870 h1         1 1KL       0.111200
     37 H5          -2.0000    -0.2250     4.6200 h1         1 1KL       0.111200
     38 H6          -3.3610     1.8240     0.1280 ha         1 1KL       0.114000
     39 H7          -4.7770     1.5770    -1.8670 ha         1 1KL       0.120500
     40 H8          -3.9390    -2.6370    -1.9290 ha         1 1KL       0.120500
     41 H9          -2.5160    -2.3770     0.0630 ha         1 1KL       0.114000
     42 H10         -4.9960    -2.7100    -3.4000 hn         1 1KL       0.170500
     43 H11         -6.9920    -3.9660    -4.4580 ha         1 1KL       0.121000
     44 H12         -8.2680    -4.1890    -6.5550 ha         1 1KL       0.115000
     45 H13         -6.8260    -0.3820    -7.8480 ha         1 1KL       0.115000
     46 H14         -5.5530    -0.1460    -5.7510 ha         1 1KL       0.121000
     47 H15         -6.8550    -3.6410    -9.4880 hc         1 1KL       0.007144
     48 H16         -8.4070    -3.7220   -10.3320 hc         1 1KL       0.007144
     49 H17         -8.1920    -4.5700    -8.7950 hc         1 1KL       0.007144
     50 H18        -10.4740    -2.4450    -9.1900 hc         1 1KL       0.007144
     51 H19        -10.0860    -3.5590    -7.8720 hc         1 1KL       0.007144
     52 H20        -10.1770    -1.8200    -7.5620 hc         1 1KL       0.007144
     53 H21         -7.1400    -1.1430    -9.7650 hc         1 1KL       0.007144
     54 H22         -8.7980    -1.2690   -10.3670 hc         1 1KL       0.007144
     55 H23         -8.4530    -0.3130    -8.9190 hc         1 1KL       0.007144
@<TRIPOS>BOND
     1     1     2 1   
     2     1     3 1   
     3     1     7 2   
     4     2    17 3   
     5     3     4 2   
     6     3     5 1   
     7     5     6 1   
     8     6    33 1   
     9     6    34 1   
    10     6    35 1   
    11     7    18 1   
    12     7    19 1   
    13     8     9 1   
    14     8    18 1   
    15     8    20 2   
    16     9    19 1   
    17     9    36 1   
    18     9    37 1   
    19    10    11 ar  
    20    10    15 ar  
    21    10    18 1   
    22    11    12 ar  
    23    11    38 1   
    24    12    13 ar  
    25    12    39 1   
    26    13    14 ar  
    27    13    16 1   
    28    14    15 ar  
    29    14    40 1   
    30    15    41 1   
    31    16    21 2   
    32    16    22 1   
    33    22    23 1   
    34    22    42 1   
    35    23    24 ar  
    36    23    28 ar  
    37    24    25 ar  
    38    24    43 1   
    39    25    26 ar  
    40    25    44 1   
    41    26    27 ar  
    42    26    29 1   
    43    27    28 ar  
    44    27    45 1   
    45    28    46 1   
    46    29    30 1   
    47    29    31 1   
    48    29    32 1   
    49    30    47 1   
    50    30    48 1   
    51    30    49 1   
    52    31    50 1   
    53    31    51 1   
    54    31    52 1   
    55    32    53 1   
    56    32    54 1   
    57    32    55 1   
@<TRIPOS>SUBSTRUCTURE
     1 1KL         1 TEMP              0 ****  ****    0 ROOT
