@<TRIPOS>MOLECULE
molecule
   27    26     1     0     0
SMALL
bcc


@<TRIPOS>ATOM
      1 O            0.0000     0.0000     0.0000 o          1 1KM      -0.813800
      2 C            1.2090     0.0000     0.0000 c          1 1KM       0.877600
      3 OXT          1.8800     0.0060    -1.1620 o          1 1KM      -0.813800
      4 CA           1.9620     0.0000     1.3050 c3         1 1KM       0.011500
      5 N            1.0790     0.4740     2.3800 nz         1 1KM      -0.787600
      6 CB           2.4340    -1.4210     1.6210 c3         1 1KM      -0.048300
      7 SAJ          3.3410    -1.4210     3.1910 ss         1 1KM      -0.362200
      8 CAN          3.6880    -3.1800     3.4630 c3         1 1KM      -0.039800
      9 PAO          4.9300    -3.3590     4.7850 p5         1 1KM       1.006700
     10 OAG          4.9460    -4.8830     5.3040 o          1 1KM      -0.880500
     11 OAH          4.5580    -2.3790     6.0070 o          1 1KM      -0.880500
     12 OAF          6.2660    -3.0030     4.2570 o          1 1KM      -0.880500
     13 CAL          2.3990    -3.8960     3.8740 c3         1 1KM       0.175100
     14 CAA          1.9460    -3.3840     5.2430 c3         1 1KM      -0.117100
     15 OAE          2.6380    -5.3040     3.9470 oh         1 1KM      -0.535800
     16 H2           2.8200     0.6570     1.2260 hx         1 1KM       0.107700
     17 H3           1.6270     0.6980     3.1870 hn         1 1KM       0.437133
     18 H4           0.5880     1.2900     2.0730 hn         1 1KM       0.437133
     19 H6           3.0850    -1.7700     0.8290 h1         1 1KM       0.079200
     20 H7           1.5770    -2.0770     1.6990 h1         1 1KM       0.079200
     21 H8           4.0680    -3.6180     2.5480 h1         1 1KM       0.070700
     22 H11          1.6260    -3.6980     3.1410 h1         1 1KM      -0.043300
     23 H12          2.3730    -4.0070     6.0210 hc         1 1KM       0.048033
     24 H13          2.2800    -2.3620     5.3750 hc         1 1KM       0.048033
     25 H14          0.8650    -3.4220     5.3030 hc         1 1KM       0.048033
     26 H15          1.9680    -5.7610     3.4670 ho         1 1KM       0.341000
     27 HN3          0.4130    -0.2390     2.6030 hn         1 1KM       0.437133
@<TRIPOS>BOND
     1     1     2 1   
     2     3     2 1   
     3     2     4 1   
     4    11     9 1   
     5    10     9 1   
     6     4     5 1   
     7     4     6 1   
     8     6     7 1   
     9     9    12 1   
    10     9     8 1   
    11     7     8 1   
    12     8    13 1   
    13    14    13 1   
    14    13    15 1   
    15     4    16 1   
    16     5    17 1   
    17     5    18 1   
    18     6    19 1   
    19     6    20 1   
    20     8    21 1   
    21    13    22 1   
    22    14    23 1   
    23    14    24 1   
    24    14    25 1   
    25    15    26 1   
    26    27     5 1   
@<TRIPOS>SUBSTRUCTURE
     1 1KM         1 TEMP              0 ****  ****    0 ROOT
