@<TRIPOS>MOLECULE
1KM
   27    26     1     0     0
SMALL
bcc


@<TRIPOS>ATOM
      1 O            0.7060     1.7500     1.4810 o          1 1KM      -0.850800
      2 C            1.4620     1.1520     0.6630 c          1 1KM       0.915600
      3 OXT          1.2100     1.0160    -0.5670 o          1 1KM      -0.850800
      4 CA           2.7930     0.5190     1.1980 c3         1 1KM       0.045500
      5 N            3.4440     1.3540     2.1890 n8         1 1KM      -0.903800
      6 CB           2.4480    -0.8980     1.6610 c3         1 1KM      -0.030300
      7 SAJ          3.8940    -1.8350     2.1110 ss         1 1KM      -0.293200
      8 CAN          3.5450    -2.5090     3.6750 c3         1 1KM      -0.271800
      9 PAO          4.4200    -4.0050     3.7480 p5         1 1KM       1.355600
     10 OAG          5.6910    -4.0780     2.9950 o          1 1KM      -0.863000
     11 OAH          4.3330    -4.4270     5.1720 o          1 1KM      -0.863000
     12 OAF          3.4450    -5.0020     2.8770 oh         1 1KM      -0.791400
     13 CAL          3.6730    -1.4750     4.7850 c3         1 1KM       0.199100
     14 CAA          5.0490    -0.8400     4.9540 c3         1 1KM      -0.119100
     15 OAE          3.1970    -1.9150     6.0530 oh         1 1KM      -0.650800
     16 H2           3.5050     0.4360     0.3260 h1         1 1KM       0.051700
     17 H3           3.8210    -5.2000     2.0270 ho         1 1KM       0.423000
     18 H4           2.7420     1.8560     2.7050 hn         1 1KM       0.336800
     19 H6           1.9560    -1.4280     0.8100 h1         1 1KM       0.065200
     20 H7           1.7280    -0.8600     2.5130 h1         1 1KM       0.065200
     21 H8           2.4700    -2.8380     3.7130 h1         1 1KM       0.099700
     22 H11          2.9540    -0.6340     4.5240 h1         1 1KM       0.035700
     23 H12          4.9370     0.1330     5.4890 hc         1 1KM       0.036700
     24 H13          5.5090    -0.6550     3.9530 hc         1 1KM       0.036700
     25 H14          5.7230    -1.4880     5.5620 hc         1 1KM       0.036700
     26 H15          3.5270    -2.8270     6.1660 ho         1 1KM       0.447000
     27 HN3          3.9540     0.7750     2.8340 hn         1 1KM       0.336800
@<TRIPOS>BOND
     1     1     2 1   
     2     2     3 1   
     3     2     4 1   
     4     4     5 1   
     5     4     6 1   
     6     4    16 1   
     7     5    18 1   
     8     5    27 1   
     9     6     7 1   
    10     6    19 1   
    11     6    20 1   
    12     7     8 1   
    13     8     9 1   
    14     8    13 1   
    15     8    21 1   
    16     9    10 1   
    17     9    11 1   
    18     9    12 1   
    19    12    17 1   
    20    13    14 1   
    21    13    15 1   
    22    13    22 1   
    23    14    23 1   
    24    14    24 1   
    25    14    25 1   
    26    15    26 1   
@<TRIPOS>SUBSTRUCTURE
     1 1KM         1 TEMP              0 ****  ****    0 ROOT
