@<TRIPOS>MOLECULE
1KM
   27    26     1     0     0
SMALL
bcc


@<TRIPOS>ATOM
      1 O            0.0000     0.0000     0.0000 o          1 1KM      -0.863300
      2 C            1.2090     0.0000     0.0000 c          1 1KM       0.969600
      3 OXT          1.8800     0.0060    -1.1620 o          1 1KM      -0.863300
      4 CA           1.9620     0.0000     1.3050 c3         1 1KM      -0.153500
      5 N            1.0790     0.4740     2.3800 nz         1 1KM       0.070400
      6 CB           2.4340    -1.4210     1.6210 c3         1 1KM      -0.033300
      7 SAJ          3.3410    -1.4210     3.1910 ss         1 1KM      -0.438200
      8 CAN          3.6880    -3.1800     3.4630 c3         1 1KM       0.172200
      9 PAO          4.9300    -3.3590     4.7850 p5         1 1KM       0.411700
     10 OAG          4.9460    -4.8830     5.3040 o          1 1KM      -0.701833
     11 OAH          4.5580    -2.3790     6.0070 o          1 1KM      -0.701833
     12 OAF          6.2660    -3.0030     4.2570 o          1 1KM      -0.701833
     13 CAL          2.3990    -3.8960     3.8740 c3         1 1KM       0.225100
     14 CAA          1.9460    -3.3840     5.2430 c3         1 1KM      -0.063100
     15 OAE          2.6380    -5.3040     3.9470 oh         1 1KM      -0.510800
     16 H2           2.8200     0.6570     1.2260 hx         1 1KM       0.087700
     17 H3           1.6270     0.6980     3.1870 hn         1 1KM       0.211467
     18 H4           0.5880     1.2900     2.0730 hn         1 1KM       0.211467
     19 H6           3.0850    -1.7700     0.8290 h1         1 1KM       0.055700
     20 H7           1.5770    -2.0770     1.6990 h1         1 1KM       0.055700
     21 H8           4.0680    -3.6180     2.5480 h1         1 1KM       0.041700
     22 H11          1.6260    -3.6980     3.1410 h1         1 1KM      -0.073300
     23 H12          2.3730    -4.0070     6.0210 hc         1 1KM       0.022033
     24 H13          2.2800    -2.3620     5.3750 hc         1 1KM       0.022033
     25 H14          0.8650    -3.4220     5.3030 hc         1 1KM       0.022033
     26 H15          1.9680    -5.7610     3.4670 ho         1 1KM       0.314000
     27 HN3          0.4130    -0.2390     2.6030 hn         1 1KM       0.211467
@<TRIPOS>BOND
     1     1     2 1   
     2     2     3 1   
     3     2     4 1   
     4     4     5 1   
     5     4     6 1   
     6     4    16 1   
     7     5    17 1   
     8     5    18 1   
     9     5    27 1   
    10     6     7 1   
    11     6    19 1   
    12     6    20 1   
    13     7     8 1   
    14     8     9 1   
    15     8    13 1   
    16     8    21 1   
    17     9    10 1   
    18     9    11 1   
    19     9    12 1   
    20    13    14 1   
    21    13    15 1   
    22    13    22 1   
    23    14    23 1   
    24    14    24 1   
    25    14    25 1   
    26    15    26 1   
@<TRIPOS>SUBSTRUCTURE
     1 1KM         1 TEMP              0 ****  ****    0 ROOT
