@<TRIPOS>MOLECULE
molecule
   33    34     1     0     0
SMALL
bcc


@<TRIPOS>ATOM
      1 CAP          0.0000     0.0000     0.0000 c3         1 1KN       0.129700
      2 OAO          1.4290     0.0000     0.0000 os         1 1KN      -0.330900
      3 CAL          2.0450     0.0000     1.2110 ca         1 1KN       0.139100
      4 CAM          3.4310    -0.0000     1.2860 ca         1 1KN      -0.195500
      5 CAN          4.0560     0.0010     2.5180 ca         1 1KN      -0.074500
      6 CAK          1.2910     0.0070     2.3750 ca         1 1KN      -0.195500
      7 CAJ          1.9190     0.0130     3.6050 ca         1 1KN      -0.074500
      8 CAI          3.3010     0.0020     3.6760 ca         1 1KN      -0.118300
      9 CAC          3.9840     0.0080     5.0200 c3         1 1KN       0.210800
     10 NAD          5.1860     0.8610     4.9670 n7         1 1KN      -0.798200
     11 CAE          6.3700     0.0240     5.2510 c3         1 1KN       0.152500
     12 CAF          7.3920     0.8080     6.0790 c3         1 1KN      -0.093100
     13 CAA          5.8220    -1.1750     6.0640 c3         1 1KN       0.090100
     14 OAH          5.6500    -0.8270     7.4390 oh         1 1KN      -0.583800
     15 CAB          4.4520    -1.4180     5.3780 c3         1 1KN       0.113100
     16 OAG          3.5360    -2.0380     6.2830 oh         1 1KN      -0.586800
     17 H1          -0.3610    -0.0050    -1.0210 h1         1 1KN       0.040367
     18 H2          -0.3610     0.8870     0.5060 h1         1 1KN       0.040367
     19 H3          -0.3610    -0.8820     0.5150 h1         1 1KN       0.040367
     20 H4           4.0230    -0.0010     0.3790 ha         1 1KN       0.137500
     21 H5           5.1380    -0.0040     2.5770 ha         1 1KN       0.138500
     22 H6           0.2090     0.0160     2.3190 ha         1 1KN       0.137500
     23 H7           1.3300     0.0160     4.5140 ha         1 1KN       0.138500
     24 H8           3.3080     0.3740     5.7820 h1         1 1KN       0.073700
     25 H9           5.1130     1.5820     5.6570 hn         1 1KN       0.365800
     26 H11          6.8140    -0.3240     4.3260 h1         1 1KN       0.070700
     27 H12          7.8000     1.6130     5.4790 hc         1 1KN       0.044367
     28 H13          6.9060     1.2210     6.9550 hc         1 1KN       0.044367
     29 H14          8.1920     0.1460     6.3870 hc         1 1KN       0.044367
     30 H15          6.4650    -2.0400     5.9540 h1         1 1KN       0.039700
     31 H16          5.9400    -1.5400     7.9820 ho         1 1KN       0.405000
     32 H17          4.5770    -2.0130     4.4810 h1         1 1KN       0.052700
     33 H18          3.4220    -2.9430     6.0440 ho         1 1KN       0.399000
@<TRIPOS>BOND
     1    14    13 1
     2    16    15 1
     3    13    15 1
     4    13    11 1
     5    15     9 1
     6     9    10 1
     7     9     8 1
     8    12    11 1
     9    10    11 1
    10     7     8 ar
    11     7     6 ar
    12     8     5 ar
    13     6     3 ar
    14     5     4 ar
    15     3     4 ar
    16     3     2 1
    17     2     1 1
    18     1    17 1
    19     1    18 1
    20     1    19 1
    21     4    20 1
    22     5    21 1
    23     6    22 1
    24     7    23 1
    25     9    24 1
    26    10    25 1
    27    11    26 1
    28    12    27 1
    29    12    28 1
    30    12    29 1
    31    13    30 1
    32    14    31 1
    33    15    32 1
    34    16    33 1
@<TRIPOS>SUBSTRUCTURE
     1 1KN         1 TEMP              0 ****  ****    0 ROOT
