@<TRIPOS>MOLECULE
1KN
   33    34     1     0     0
SMALL
bcc


@<TRIPOS>ATOM
      1 CAP         -0.0780     0.2050     0.0790 c3         1 1KN       0.113700
      2 OAO          1.3260     0.4290     0.0530 os         1 1KN      -0.327900
      3 CAL          2.0050     0.1750     1.2290 ca         1 1KN       0.124100
      4 CAM          1.4050    -0.2500     2.4180 ca         1 1KN      -0.184000
      5 CAN          2.1970    -0.4720     3.5460 ca         1 1KN      -0.084500
      6 CAK          3.3970     0.3800     1.1640 ca         1 1KN      -0.184000
      7 CAJ          4.1670     0.1530     2.2950 ca         1 1KN      -0.084500
      8 CAI          3.5770    -0.2740     3.4970 ca         1 1KN      -0.114300
      9 CAC          4.4910    -0.5030     4.6710 c3         1 1KN       0.214800
     10 NAD          3.8690    -1.2200     5.7900 n7         1 1KN      -0.796200
     11 CAE          3.6490    -0.2840     6.8960 c3         1 1KN       0.128500
     12 CAF          3.9120    -0.8610     8.2770 c3         1 1KN      -0.101100
     13 CAA          4.4790     1.0090     6.6410 c3         1 1KN       0.083100
     14 OAH          5.5350     1.2050     7.5540 oh         1 1KN      -0.593800
     15 CAB          5.0170     0.8690     5.1970 c3         1 1KN       0.083100
     16 OAG          6.4320     0.7910     5.1970 oh         1 1KN      -0.605800
     17 H1          -0.5720     0.8800     0.8190 h1         1 1KN       0.043700
     18 H2          -0.3040    -0.8640     0.3140 h1         1 1KN       0.043700
     19 H3          -0.4020     0.4570    -0.9630 h1         1 1KN       0.043700
     20 H4           0.3210    -0.4150     2.4780 ha         1 1KN       0.142500
     21 H5           1.7110    -0.8110     4.4750 ha         1 1KN       0.143500
     22 H6           3.8520     0.7130     0.2210 ha         1 1KN       0.142500
     23 H7           5.2560     0.3090     2.2530 ha         1 1KN       0.143500
     24 H8           5.3780    -1.0960     4.2890 h1         1 1KN       0.076700
     25 H9           4.4630    -1.9750     6.0790 hn         1 1KN       0.361800
     26 H11          2.5570     0.0050     6.8360 h1         1 1KN       0.069700
     27 H12          3.1830    -1.6760     8.5030 hc         1 1KN       0.046367
     28 H13          4.9450    -1.2780     8.3580 hc         1 1KN       0.046367
     29 H14          3.8010    -0.0500     9.0360 hc         1 1KN       0.046367
     30 H15          3.8360     1.9210     6.7580 h1         1 1KN       0.088700
     31 H16          6.1160     0.4340     7.4980 ho         1 1KN       0.410000
     32 H17          4.6780     1.7160     4.5470 h1         1 1KN       0.065700
     33 H18          6.7560     1.6160     5.5840 ho         1 1KN       0.416000
@<TRIPOS>BOND
     1     1     2 1   
     2     1    17 1   
     3     1    18 1   
     4     1    19 1   
     5     2     3 1   
     6     3     4 ar  
     7     3     6 ar  
     8     4     5 ar  
     9     4    20 1   
    10     5     8 ar  
    11     5    21 1   
    12     6     7 ar  
    13     6    22 1   
    14     7     8 ar  
    15     7    23 1   
    16     8     9 1   
    17     9    10 1   
    18     9    15 1   
    19     9    24 1   
    20    10    11 1   
    21    10    25 1   
    22    11    12 1   
    23    11    13 1   
    24    11    26 1   
    25    12    27 1   
    26    12    28 1   
    27    12    29 1   
    28    13    14 1   
    29    13    15 1   
    30    13    30 1   
    31    14    31 1   
    32    15    16 1   
    33    15    32 1   
    34    16    33 1   
@<TRIPOS>SUBSTRUCTURE
     1 1KN         1 TEMP              0 ****  ****    0 ROOT
