@<TRIPOS>MOLECULE
1KO
   46    49     1     0     0
SMALL
bcc


@<TRIPOS>ATOM
      1 N01          0.0000     0.0000     0.0000 nc         1 1KO      -0.184600
      2 C02          1.3400     0.0000     0.0000 cc         1 1KO       0.149400
      3 C03          1.7670     0.0000     1.2980 cd         1 1KO      -0.382100
      4 N04          0.6590     0.0010     2.0830 na         1 1KO       0.547900
      5 C05         -0.4320     0.0010     1.2470 cd         1 1KO      -0.337300
      6 C06          0.4680     0.0020     3.4450 cc         1 1KO       0.003000
      7 N07         -0.7400     0.0020     3.9630 nd         1 1KO      -0.472000
      8 C08         -1.8300     0.0030     3.2080 cc         1 1KO       0.216200
      9 C09         -1.7260     0.0020     1.8270 cd         1 1KO       0.087300
     10 N10         -2.8610     0.0030     1.0290 nu         1 1KO      -0.226600
     11 C11          2.2110    -0.0010    -1.2020 ca         1 1KO      -0.051800
     12 C12          1.6380     0.0010     4.3380 c          1 1KO       0.263600
     13 C13         -4.1900     0.0030     1.6470 c3         1 1KO       0.083500
     14 C14         -4.6020    -1.4350     1.9710 c3         1 1KO       0.130800
     15 N15         -5.9440    -1.4360     2.5720 n7         1 1KO      -0.572200
     16 C16         -6.9420    -0.8980     1.6390 c3         1 1KO       0.140800
     17 C17         -6.5990     0.5550     1.3040 c3         1 1KO      -0.016400
     18 C18         -5.2040     0.6140     0.6760 c3         1 1KO      -0.031400
     19 C19          3.5970    -0.0090    -1.0620 ca         1 1KO      -0.065500
     20 C20          4.4010    -0.0160    -2.1820 ca         1 1KO      -0.097500
     21 C21          3.8340    -0.0160    -3.4440 ca         1 1KO      -0.021600
     22 C22          2.4570    -0.0080    -3.5890 ca         1 1KO      -0.097500
     23 C23          1.6440    -0.0020    -2.4750 ca         1 1KO      -0.065500
     24 Cl           4.8510    -0.0250    -4.8510 cl         1 1KO       0.002600
     25 N25          1.4660     0.0010     5.6740 nz         1 1KO       0.227600
     26 O26          2.7610     0.0000     3.8700 o          1 1KO      -0.489100
     27 H1           2.7960     0.0000     1.6370 h4         1 1KO       0.192000
     28 H2          -2.8080     0.0030     3.6740 h4         1 1KO       0.032100
     29 H3          -2.7720     0.0320     0.0330 hn         1 1KO       0.321800
     30 H4          -4.1690     0.5860     2.5590 h1         1 1KO       0.062700
     31 H5          -3.8950    -1.8630     2.6710 h1         1 1KO       0.016200
     32 H6          -4.6160    -2.0200     1.0600 h1         1 1KO       0.016200
     33 H7          -6.1940    -2.3710     2.8270 hn         1 1KO       0.267800
     34 H9          -7.9220    -0.9390     2.0990 h1         1 1KO       0.018700
     35 H10         -6.9400    -1.4870     0.7300 h1         1 1KO       0.018700
     36 H11         -7.3270     0.9450     0.6030 hc         1 1KO       0.031700
     37 H12         -6.6100     1.1460     2.2120 hc         1 1KO       0.031700
     38 H13         -5.2020     0.0510    -0.2500 hc         1 1KO       0.027700
     39 H14         -4.9400     1.6460     0.4790 hc         1 1KO       0.027700
     40 H15          4.0420    -0.0090    -0.0740 ha         1 1KO       0.112000
     41 H16          5.4790    -0.0220    -2.0740 ha         1 1KO       0.122000
     42 H17          2.0180    -0.0080    -4.5800 ha         1 1KO       0.122000
     43 H18          0.5670     0.0040    -2.5890 ha         1 1KO       0.112000
     44 H19          0.9560     0.8190     5.9450 hn         1 1KO       0.242800
     45 H20          0.9550    -0.8160     5.9450 hn         1 1KO       0.242800
     46 H253         2.3590     0.0010     6.1260 hn         1 1KO       0.242800
@<TRIPOS>BOND
     1     1     2 1   
     2     1     5 2   
     3     2     3 2   
     4     2    11 1   
     5     3     4 1   
     6     3    27 1   
     7     4     5 1   
     8     4     6 1   
     9     5     9 1   
    10     6     7 2   
    11     6    12 1   
    12     7     8 1   
    13     8     9 2   
    14     8    28 1   
    15     9    10 1   
    16    10    13 1   
    17    10    29 1   
    18    11    19 ar  
    19    11    23 ar  
    20    12    25 1   
    21    12    26 2   
    22    13    14 1   
    23    13    18 1   
    24    13    30 1   
    25    14    15 1   
    26    14    31 1   
    27    14    32 1   
    28    15    16 1   
    29    15    33 1   
    30    16    17 1   
    31    16    34 1   
    32    16    35 1   
    33    17    18 1   
    34    17    36 1   
    35    17    37 1   
    36    18    38 1   
    37    18    39 1   
    38    19    20 ar  
    39    19    40 1   
    40    20    21 ar  
    41    20    41 1   
    42    21    22 ar  
    43    21    24 1   
    44    22    23 ar  
    45    22    42 1   
    46    23    43 1   
    47    25    44 1   
    48    25    45 1   
    49    25    46 1   
@<TRIPOS>SUBSTRUCTURE
     1 1KO         1 TEMP              0 ****  ****    0 ROOT
