@<TRIPOS>MOLECULE
molecule
   46    49     1     0     0
SMALL
bcc


@<TRIPOS>ATOM
      1 N01          0.0000     0.0000     0.0000 nc         1 1KO      -0.261600
      2 C02          1.3400     0.0000     0.0000 cd         1 1KO       0.157400
      3 C03          1.7670     0.0000     1.2980 cc         1 1KO      -0.178100
      4 N04          0.6590     0.0010     2.0830 na         1 1KO      -0.051100
      5 C05         -0.4320     0.0010     1.2470 cd         1 1KO      -0.100300
      6 C06          0.4680     0.0020     3.4450 cc         1 1KO       0.280000
      7 N07         -0.7400     0.0020     3.9630 nd         1 1KO      -0.618000
      8 C08         -1.8300     0.0030     3.2080 cc         1 1KO       0.265200
      9 C09         -1.7260     0.0020     1.8270 cd         1 1KO       0.232300
     10 N10         -2.8610     0.0030     1.0290 nu         1 1KO      -0.713600
     11 C11          2.2110    -0.0010    -1.2020 ca         1 1KO      -0.044800
     12 C12          1.6380     0.0010     4.3380 c          1 1KO       0.421600
     13 C13         -4.1900     0.0030     1.6470 c3         1 1KO       0.212500
     14 C14         -4.6020    -1.4350     1.9710 c3         1 1KO       0.139800
     15 N15         -5.9440    -1.4360     2.5720 n7         1 1KO      -0.818200
     16 C16         -6.9420    -0.8980     1.6390 c3         1 1KO       0.150800
     17 C17         -6.5990     0.5550     1.3040 c3         1 1KO      -0.074400
     18 C18         -5.2040     0.6140     0.6760 c3         1 1KO      -0.093400
     19 C19          3.5970    -0.0090    -1.0620 ca         1 1KO      -0.091500
     20 C20          4.4010    -0.0160    -2.1820 ca         1 1KO      -0.121000
     21 C21          3.8340    -0.0160    -3.4440 ca         1 1KO       0.047400
     22 C22          2.4570    -0.0080    -3.5890 ca         1 1KO      -0.121000
     23 C23          1.6440    -0.0020    -2.4750 ca         1 1KO      -0.091500
     24 Cl           4.8510    -0.0250    -4.8510 cl         1 1KO      -0.082400
     25 N25          1.4660     0.0010     5.6740 nz         1 1KO      -0.661400
     26 O26          2.7610     0.0000     3.8700 o          1 1KO      -0.460100
     27 H1           2.7960     0.0000     1.6370 h4         1 1KO       0.212000
     28 H2          -2.8080     0.0030     3.6740 h4         1 1KO       0.067100
     29 H3          -2.7720     0.0320     0.0330 hn         1 1KO       0.480800
     30 H4          -4.1690     0.5860     2.5590 h1         1 1KO       0.081700
     31 H5          -3.8950    -1.8630     2.6710 h1         1 1KO       0.043200
     32 H6          -4.6160    -2.0200     1.0600 h1         1 1KO       0.043200
     33 H7          -6.1940    -2.3710     2.8270 hn         1 1KO       0.372800
     34 H9          -7.9220    -0.9390     2.0990 h1         1 1KO       0.047200
     35 H10         -6.9400    -1.4870     0.7300 h1         1 1KO       0.047200
     36 H11         -7.3270     0.9450     0.6030 hc         1 1KO       0.064200
     37 H12         -6.6100     1.1460     2.2120 hc         1 1KO       0.064200
     38 H13         -5.2020     0.0510    -0.2500 hc         1 1KO       0.058200
     39 H14         -4.9400     1.6460     0.4790 hc         1 1KO       0.058200
     40 H15          4.0420    -0.0090    -0.0740 ha         1 1KO       0.142500
     41 H16          5.4790    -0.0220    -2.0740 ha         1 1KO       0.155000
     42 H17          2.0180    -0.0080    -4.5800 ha         1 1KO       0.155000
     43 H18          0.5670     0.0040    -2.5890 ha         1 1KO       0.142500
     44 H19          0.9560     0.8190     5.9450 hn         1 1KO       0.479800
     45 H20          0.9550    -0.8160     5.9450 hn         1 1KO       0.479800
     46 H253         2.3590     0.0010     6.1260 hn         1 1KO       0.479800
@<TRIPOS>BOND
     1    24    21 1   
     2    20    21 ar  
     3    20    19 ar  
     4    21    22 ar  
     5    19    11 ar  
     6    26    12 2   
     7    22    23 ar  
     8    11    23 ar  
     9    11     2 1   
    10     3     2 2   
    11     3     4 1   
    12    12    25 1   
    13    12     6 1   
    14     2     1 1   
    15     4     6 1   
    16     4     5 1   
    17     6     7 2   
    18     1     5 2   
    19     5     9 1   
    20     7     8 1   
    21     9     8 2   
    22     9    10 1   
    23    10    13 1   
    24    13    18 1   
    25    13    14 1   
    26    18    17 1   
    27    14    15 1   
    28    17    16 1   
    29    15    16 1   
    30     3    27 1   
    31     8    28 1   
    32    10    29 1   
    33    13    30 1   
    34    14    31 1   
    35    14    32 1   
    36    15    33 1   
    37    16    34 1   
    38    16    35 1   
    39    17    36 1   
    40    17    37 1   
    41    18    38 1   
    42    18    39 1   
    43    19    40 1   
    44    20    41 1   
    45    22    42 1   
    46    23    43 1   
    47    25    44 1   
    48    25    45 1   
    49    46    25 1   
@<TRIPOS>SUBSTRUCTURE
     1 1KO         1 TEMP              0 ****  ****    0 ROOT
