@<TRIPOS>MOLECULE
1KO
   46    49     1     0     0
SMALL
bcc


@<TRIPOS>ATOM
      1 N01          0.0730    -0.1970    -0.2370 nc         1 1KO      -0.223600
      2 C02          1.4320    -0.0030    -0.2210 cc         1 1KO       0.142400
      3 C03          1.9130     0.0690     1.1430 cd         1 1KO      -0.145100
      4 N04          0.8160    -0.0880     1.9460 na         1 1KO      -0.028100
      5 C05         -0.3180    -0.2520     1.0840 cd         1 1KO      -0.172300
      6 C06          0.6270    -0.1140     3.3410 cc         1 1KO       0.221000
      7 N07         -0.6200    -0.3000     3.8790 nd         1 1KO      -0.585000
      8 C08         -1.6730    -0.4570     3.1070 cc         1 1KO       0.284200
      9 C09         -1.6310    -0.4420     1.6470 cd         1 1KO       0.252300
     10 N10         -2.7040    -0.5760     0.8560 nu         1 1KO      -0.660600
     11 C11          2.2780     0.1180    -1.3950 ca         1 1KO      -0.055800
     12 C12          1.7800     0.0590     4.1920 c          1 1KO       0.472600
     13 C13         -4.0620    -0.7600     1.3490 c3         1 1KO       0.192500
     14 C14         -4.3280    -2.2330     1.7830 c3         1 1KO       0.151800
     15 N15         -5.6610    -2.3680     2.3270 n7         1 1KO      -0.823200
     16 C16         -6.7080    -1.9480     1.4150 c3         1 1KO       0.152800
     17 C17         -6.4930    -0.5340     0.8770 c3         1 1KO      -0.079400
     18 C18         -5.1060    -0.3670     0.2910 c3         1 1KO      -0.091400
     19 C19          3.6520    -0.1530    -1.2960 ca         1 1KO      -0.091000
     20 C20          4.4760    -0.0350    -2.4100 ca         1 1KO      -0.126000
     21 C21          3.9290     0.3540    -3.6390 ca         1 1KO       0.038400
     22 C22          2.5610     0.6230    -3.7490 ca         1 1KO      -0.126000
     23 C23          1.7390     0.5030    -2.6310 ca         1 1KO      -0.091000
     24 Cl           4.9310     0.5000    -4.9970 cl         1 1KO      -0.061400
     25 N25          1.5110     0.0370     5.6850 nz         1 1KO      -0.734400
     26 O26          2.9630     0.2250     3.8980 o          1 1KO      -0.486100
     27 H1           2.9260     0.2250     1.5250 h4         1 1KO       0.220000
     28 H2          -2.6380    -0.6130     3.6270 h4         1 1KO       0.063100
     29 H3          -2.5790    -0.5780    -0.1390 hn         1 1KO       0.480800
     30 H4          -4.1990    -0.0850     2.2470 h1         1 1KO       0.087700
     31 H5          -4.1470    -2.9030     0.8910 h1         1 1KO       0.040700
     32 H6          -3.5980    -2.5220     2.5900 h1         1 1KO       0.040700
     33 H7          -5.8160    -3.3120     2.6280 hn         1 1KO       0.384800
     34 H9          -6.8070    -2.6500     0.5350 h1         1 1KO       0.048200
     35 H10         -7.6780    -1.9780     1.9880 h1         1 1KO       0.048200
     36 H11         -6.6500     0.2130     1.6980 hc         1 1KO       0.065700
     37 H12         -7.2580    -0.3330     0.0820 hc         1 1KO       0.065700
     38 H13         -4.9570     0.6980    -0.0260 hc         1 1KO       0.061200
     39 H14         -4.9960    -1.0170    -0.6170 hc         1 1KO       0.061200
     40 H15          4.0850    -0.4690    -0.3350 ha         1 1KO       0.143000
     41 H16          5.5520    -0.2510    -2.3250 ha         1 1KO       0.158500
     42 H17          2.1310     0.9280    -4.7170 ha         1 1KO       0.158500
     43 H18          0.6630     0.7170    -2.7270 ha         1 1KO       0.143000
     44 H19          0.8580     0.7860     5.9310 hn         1 1KO       0.466800
     45 H20          2.3950     0.1700     6.1900 hn         1 1KO       0.466800
     46 H253         1.0950    -0.8600     5.9490 hn         1 1KO       0.466800
@<TRIPOS>BOND
     1     1     2 1   
     2     1     5 2   
     3     2     3 2   
     4     2    11 1   
     5     3     4 1   
     6     3    27 1   
     7     4     5 1   
     8     4     6 1   
     9     5     9 1   
    10     6     7 2   
    11     6    12 1   
    12     7     8 1   
    13     8     9 2   
    14     8    28 1   
    15     9    10 1   
    16    10    13 1   
    17    10    29 1   
    18    11    19 ar  
    19    11    23 ar  
    20    12    25 1   
    21    12    26 2   
    22    13    14 1   
    23    13    18 1   
    24    13    30 1   
    25    14    15 1   
    26    14    31 1   
    27    14    32 1   
    28    15    16 1   
    29    15    33 1   
    30    16    17 1   
    31    16    34 1   
    32    16    35 1   
    33    17    18 1   
    34    17    36 1   
    35    17    37 1   
    36    18    38 1   
    37    18    39 1   
    38    19    20 ar  
    39    19    40 1   
    40    20    21 ar  
    41    20    41 1   
    42    21    22 ar  
    43    21    24 1   
    44    22    23 ar  
    45    22    42 1   
    46    23    43 1   
    47    25    44 1   
    48    25    45 1   
    49    25    46 1   
@<TRIPOS>SUBSTRUCTURE
     1 1KO         1 TEMP              0 ****  ****    0 ROOT
