@<TRIPOS>MOLECULE
molecule
   18    19     1     0     0
SMALL
bcc


@<TRIPOS>ATOM
      1 Cl1          0.0000     0.0000     0.0000 cl         1 1KP      -0.071400
      2 C4           1.7360     0.0000     0.0000 ca         1 1KP       0.076400
      3 C3           2.4230     0.0000     1.2030 ca         1 1KP      -0.150000
      4 C2           3.8040     0.0000     1.2120 ca         1 1KP      -0.035000
      5 C5           2.4220    -0.0050    -1.2010 ca         1 1KP      -0.012600
      6 Cl           1.5440    -0.0060    -2.6990 cl         1 1KP      -0.081400
      7 C6           3.8130    -0.0110    -1.2110 ca         1 1KP       0.084600
      8 C1           4.5010    -0.0010     0.0090 ca         1 1KP      -0.222900
      9 N1           4.7280    -0.0090    -2.2600 ns         1 1KP      -0.448100
     10 C7           5.9930     0.0010    -1.8100 c          1 1KP       0.644200
     11 O1           6.9980     0.0050    -2.4950 o          1 1KP      -0.560500
     12 C            5.9450    -0.0090    -0.3240 cc         1 1KP       0.369900
     13 N            6.9510    -0.0040     0.5030 n2         1 1KP      -0.336200
     14 O            6.7200    -0.0170     1.8990 oh         1 1KP      -0.380500
     15 H1           1.8760    -0.0000     2.1380 ha         1 1KP       0.158000
     16 H2           4.3410     0.0000     2.1520 ha         1 1KP       0.164000
     17 H3           4.4750    -0.0140    -3.2280 hn         1 1KP       0.360500
     18 H6           7.5450    -0.0200     2.3540 ho         1 1KP       0.441000
@<TRIPOS>BOND
     1    11    10 2   
     2    10     9 1   
     3    10    12 1   
     4     9     7 1   
     5    14    13 1   
     6    12    13 2   
     7    12     8 1   
     8     7     8 ar  
     9     7     5 ar  
    10     6     5 1   
    11     8     4 ar  
    12     5     2 ar  
    13     4     3 ar  
    14     2     3 ar  
    15     2     1 1   
    16     3    15 1   
    17     4    16 1   
    18     9    17 1   
    19    14    18 1   
@<TRIPOS>SUBSTRUCTURE
     1 1KP         1 TEMP              0 ****  ****    0 ROOT
