@<TRIPOS>MOLECULE
1KP
   18    19     1     0     0
SMALL
bcc


@<TRIPOS>ATOM
      1 Cl1          0.1400    -0.0900     0.0670 cl         1 1KP      -0.059400
      2 C4           1.8330    -0.0170    -0.0040 ca         1 1KP       0.067400
      3 C3           2.5510     0.1180     1.1850 ca         1 1KP      -0.161000
      4 C2           3.9510     0.1830     1.1770 ca         1 1KP      -0.039000
      5 C5           2.4880    -0.0940    -1.2510 ca         1 1KP      -0.036600
      6 Cl           1.6350    -0.2580    -2.7040 cl         1 1KP      -0.058400
      7 C6           3.8820    -0.0290    -1.2600 ca         1 1KP       0.092600
      8 C1           4.6140     0.1100    -0.0300 ca         1 1KP      -0.206900
      9 N1           4.7650    -0.0810    -2.3450 ns         1 1KP      -0.474100
     10 C7           6.1000     0.0190    -1.8950 c          1 1KP       0.634200
     11 O1           7.0860     0.0020    -2.6310 o          1 1KP      -0.554500
     12 C            6.0470     0.1480    -0.3690 cc         1 1KP       0.359900
     13 N            7.1360     0.2590     0.3380 n2         1 1KP      -0.352200
     14 O            6.9980     0.3640     1.6330 oh         1 1KP      -0.340500
     15 H1           2.0140     0.1750     2.1440 ha         1 1KP       0.157000
     16 H2           4.5130     0.2890     2.1190 ha         1 1KP       0.161000
     17 H3           4.4900    -0.1750    -3.2890 hn         1 1KP       0.356500
     18 H6           7.9160     0.4360     1.9740 ho         1 1KP       0.454000
@<TRIPOS>BOND
     1     1     2 1   
     2     2     3 ar  
     3     2     5 ar  
     4     3     4 ar  
     5     3    15 1   
     6     4     8 ar  
     7     4    16 1   
     8     5     6 1   
     9     5     7 ar  
    10     7     8 ar  
    11     7     9 1   
    12     8    12 1   
    13     9    10 1   
    14     9    17 1   
    15    10    11 2   
    16    10    12 1   
    17    12    13 2   
    18    13    14 1   
    19    14    18 1   
@<TRIPOS>SUBSTRUCTURE
     1 1KP         1 TEMP              0 ****  ****    0 ROOT
