@<TRIPOS>MOLECULE
1KP
   18    19     1     0     0
SMALL
bcc


@<TRIPOS>ATOM
      1 Cl1          0.0000     0.0000     0.0000 cl         1 1KP       0.007600
      2 C4           1.7360     0.0000     0.0000 ca         1 1KP       0.000400
      3 C3           2.4230     0.0000     1.2030 ca         1 1KP      -0.126000
      4 C2           3.8040     0.0000     1.2120 ca         1 1KP      -0.005000
      5 C5           2.4220    -0.0050    -1.2010 ca         1 1KP      -0.071600
      6 Cl           1.5440    -0.0060    -2.6990 cl         1 1KP       0.002600
      7 C6           3.8130    -0.0110    -1.2110 ca         1 1KP      -0.070400
      8 C1           4.5010    -0.0010     0.0090 ca         1 1KP      -0.216900
      9 N1           4.7280    -0.0090    -2.2600 ns         1 1KP       0.003900
     10 C7           5.9930     0.0010    -1.8100 c          1 1KP       0.535200
     11 O1           6.9980     0.0050    -2.4950 o          1 1KP      -0.611500
     12 C            5.9450    -0.0090    -0.3240 cc         1 1KP       0.334900
     13 N            6.9510    -0.0040     0.5030 n2         1 1KP      -0.274200
     14 O            6.7200    -0.0170     1.8990 oh         1 1KP      -0.368500
     15 H1           1.8760    -0.0000     2.1380 ha         1 1KP       0.124000
     16 H2           4.3410     0.0000     2.1520 ha         1 1KP       0.122000
     17 H3           4.4750    -0.0140    -3.2280 hn         1 1KP       0.188500
     18 H6           7.5450    -0.0200     2.3540 ho         1 1KP       0.426000
@<TRIPOS>BOND
     1     1     2 1   
     2     2     3 ar  
     3     2     5 ar  
     4     3     4 ar  
     5     3    15 1   
     6     4     8 ar  
     7     4    16 1   
     8     5     6 1   
     9     5     7 ar  
    10     7     8 ar  
    11     7     9 1   
    12     8    12 1   
    13     9    10 1   
    14     9    17 1   
    15    10    11 2   
    16    10    12 1   
    17    12    13 2   
    18    13    14 1   
    19    14    18 1   
@<TRIPOS>SUBSTRUCTURE
     1 1KP         1 TEMP              0 ****  ****    0 ROOT
