@<TRIPOS>MOLECULE
1KR
   87    89     1     0     0
SMALL
bcc


@<TRIPOS>ATOM
      1 C16         -2.0250    -0.0400     0.1970 c          1 1KR       0.661100
      2 O17         -1.6970     1.1250    -0.0210 o          1 1KR      -0.503000
      3 O24         -1.2800    -0.8870     0.8580 os         1 1KR      -0.316900
      4 C41         -1.6630    -2.3120     1.1440 c3         1 1KR       0.220700
      5 C18         -0.5480    -2.8180     1.9540 ca         1 1KR      -0.189300
      6 C19         -0.6020    -2.7370     3.3570 ca         1 1KR      -0.067500
      7 C20          0.4280    -3.2730     4.1220 ca         1 1KR      -0.125000
      8 C21          1.5210    -3.8830     3.4990 ca         1 1KR      -0.041000
      9 C22          1.5840    -3.9540     2.1050 ca         1 1KR      -0.125000
     10 C23          0.5580    -3.4210     1.3310 ca         1 1KR      -0.067500
     11 N15         -3.4000    -0.4560    -0.3570 ny         1 1KR      -0.706800
     12 C13         -3.8760     0.5180    -1.4030 c3         1 1KR       0.089500
     13 C11         -4.0180     1.9170    -0.7720 c          1 1KR       0.529100
     14 O12         -4.6710     2.1310     0.2380 o          1 1KR      -0.374100
     15 C14         -5.2290     0.1160    -1.9820 c3         1 1KR      -0.151100
     16 C28         -2.0500     7.4330    -0.3490 cx         1 1KR       0.055500
     17 C27         -3.2260     6.9330     0.4540 cx         1 1KR      -0.101400
     18 C26         -2.5610     6.0080    -0.5300 cx         1 1KR      -0.134700
     19 C25         -3.2760     5.5540    -1.7620 c3         1 1KR      -0.097400
     20 C9          -4.1510     4.3190    -1.5110 c3         1 1KR       0.138500
     21 C8          -5.2070     4.1650    -2.6110 c3         1 1KR      -0.110400
     22 C7          -6.3760     5.1140    -2.3820 c3         1 1KR      -0.015100
     23 C6          -7.4740     4.8280    -3.3450 ca         1 1KR      -0.141300
     24 C1          -7.2970     5.0820    -4.7110 ca         1 1KR      -0.126000
     25 C2          -8.3380     4.8510    -5.6070 ca         1 1KR      -0.113000
     26 C3          -9.5650     4.3680    -5.1460 ca         1 1KR      -0.093000
     27 C4          -9.7460     4.1180    -3.7850 ca         1 1KR      -0.113000
     28 C5          -8.7040     4.3450    -2.8860 ca         1 1KR      -0.126000
     29 N10         -3.3000     3.0540    -1.4230 ny         1 1KR      -0.662800
     30 O40         -2.6750     7.6710    -3.9900 o          1 1KR      -0.647100
     31 C39         -2.1940     8.3610    -4.9020 c          1 1KR       0.627900
     32 C34         -1.1470     9.4100    -4.6480 c3         1 1KR      -0.228700
     33 C35         -1.2740    10.5880    -5.6260 c3         1 1KR      -0.063700
     34 C37         -0.5280    10.2990    -6.9250 c3         1 1KR      -0.085400
     35 C38          0.9660    10.4310    -6.7870 c3         1 1KR      -0.106100
     36 C36         -2.7210    10.9270    -5.9260 c3         1 1KR      -0.122100
     37 C32         -1.0990     9.9120    -3.1970 c3         1 1KR       0.108100
     38 O33         -2.2290    10.6780    -2.8260 oh         1 1KR      -0.631800
     39 C30         -1.0120     8.7180    -2.2440 c          1 1KR       0.561100
     40 O31         -0.0790     7.9400    -2.1510 o          1 1KR      -0.411100
     41 N29         -2.2130     8.4950    -1.3430 ny         1 1KR      -0.637800
     42 H37         -1.7500    -2.8160     0.1490 h1         1 1KR       0.068700
     43 H38         -2.6330    -2.2730     1.7020 h1         1 1KR       0.068700
     44 H39         -1.4620    -2.2620     3.8520 ha         1 1KR       0.137000
     45 H40          0.3810    -3.2220     5.2230 ha         1 1KR       0.171000
     46 H41          2.3350    -4.3110     4.1100 ha         1 1KR       0.175000
     47 H42          2.4470    -4.4380     1.6170 ha         1 1KR       0.171000
     48 H43          0.6110    -3.4820     0.2330 ha         1 1KR       0.137000
     49 H36         -3.3460    -1.3920    -0.7810 hn         1 1KR       0.485300
     50 H32         -3.0900     0.5130    -2.2200 hx         1 1KR       0.137700
     51 H33         -5.5140     0.8420    -2.7870 hc         1 1KR       0.112367
     52 H34         -5.1780    -0.9020    -2.4500 hc         1 1KR       0.112367
     53 H35         -6.0330     0.1190    -1.2020 hc         1 1KR       0.112367
     54 H16         -3.0110     8.3030    -1.9730 hn         1 1KR       0.485300
     55 H17         -1.0570     7.5450     0.1600 hx         1 1KR       0.163700
     56 H18         -3.0760     6.7790     1.5430 hc         1 1KR       0.123200
     57 H19         -4.2460     7.3080     0.2350 hc         1 1KR       0.123200
     58 H20         -1.8690     5.2380    -0.1220 hc         1 1KR       0.097700
     59 H21         -3.9740     6.3560    -2.1420 hc         1 1KR       0.104700
     60 H22         -2.5390     5.3760    -2.5930 hc         1 1KR       0.104700
     61 H23         -4.6600     4.4210    -0.5020 hx         1 1KR       0.131700
     62 H24         -4.7520     4.3720    -3.6170 hc         1 1KR       0.070200
     63 H25         -6.0350     6.1750    -2.5160 hc         1 1KR       0.057200
     64 H26         -6.3400     5.4820    -5.0760 ha         1 1KR       0.125000
     65 H27         -8.1990     5.0600    -6.6790 ha         1 1KR       0.157500
     66 H28        -10.3910     4.1960    -5.8540 ha         1 1KR       0.165000
     67 H29        -10.7180     3.7510    -3.4180 ha         1 1KR       0.157500
     68 H30         -8.8640     4.1640    -1.8120 ha         1 1KR       0.125000
     69 H31         -2.9990     2.7910    -2.3680 hn         1 1KR       0.476800
     70 H1          -5.6090     3.1160    -2.6220 hc         1 1KR       0.070200
     71 H3          -6.7510     5.0080    -1.3280 hc         1 1KR       0.057200
     72 H2          -2.4820     8.2090    -5.9660 h4         1 1KR       0.065200
     73 H4          -0.1500     8.9030    -4.8460 hc         1 1KR       0.128700
     74 H5          -0.7860    11.4850    -5.1440 hc         1 1KR       0.067700
     75 H6          -0.7920     9.2710    -7.2880 hc         1 1KR       0.061700
     76 H7          -0.8860    11.0260    -7.7050 hc         1 1KR       0.061700
     77 H8           1.4550    10.2380    -7.7740 hc         1 1KR       0.049033
     78 H9           1.3790     9.7010    -6.0490 hc         1 1KR       0.049033
     79 H10          1.2460    11.4620    -6.4590 hc         1 1KR       0.049033
     80 H11         -3.3520    10.8790    -5.0060 hc         1 1KR       0.056367
     81 H12         -2.7860    11.9620    -6.3470 hc         1 1KR       0.056367
     82 H13         -3.1490    10.2280    -6.6860 hc         1 1KR       0.056367
     83 H14         -0.1490    10.5120    -3.0420 h1         1 1KR       0.129700
     84 H15         -2.1970    11.5140    -3.3220 ho         1 1KR       0.481000
     85 H152        -4.0780    -0.4920     0.4190 hn         1 1KR       0.485300
     86 H102        -2.4570     3.2510    -0.8560 hn         1 1KR       0.476800
     87 H292        -2.4070     9.3860    -0.8560 hn         1 1KR       0.485300
@<TRIPOS>BOND
     1     1     2 2   
     2     1     3 1   
     3     1    11 1   
     4     3     4 1   
     5     4     5 1   
     6     4    42 1   
     7     4    43 1   
     8     5     6 ar  
     9     5    10 ar  
    10     6     7 ar  
    11     6    44 1   
    12     7     8 ar  
    13     7    45 1   
    14     8     9 ar  
    15     8    46 1   
    16     9    10 ar  
    17     9    47 1   
    18    10    48 1   
    19    11    12 1   
    20    11    49 1   
    21    11    85 1   
    22    12    13 1   
    23    12    15 1   
    24    12    50 1   
    25    13    14 2   
    26    13    29 1   
    27    15    51 1   
    28    15    52 1   
    29    15    53 1   
    30    16    17 1   
    31    16    18 1   
    32    16    41 1   
    33    16    55 1   
    34    17    18 1   
    35    17    56 1   
    36    17    57 1   
    37    18    19 1   
    38    18    58 1   
    39    19    20 1   
    40    19    59 1   
    41    19    60 1   
    42    20    21 1   
    43    20    29 1   
    44    20    61 1   
    45    21    22 1   
    46    21    62 1   
    47    21    70 1   
    48    22    23 1   
    49    22    63 1   
    50    22    71 1   
    51    23    24 ar  
    52    23    28 ar  
    53    24    25 ar  
    54    24    64 1   
    55    25    26 ar  
    56    25    65 1   
    57    26    27 ar  
    58    26    66 1   
    59    27    28 ar  
    60    27    67 1   
    61    28    68 1   
    62    29    69 1   
    63    29    86 1   
    64    30    31 2   
    65    31    32 1   
    66    31    72 1   
    67    32    33 1   
    68    32    37 1   
    69    32    73 1   
    70    33    34 1   
    71    33    36 1   
    72    33    74 1   
    73    34    35 1   
    74    34    75 1   
    75    34    76 1   
    76    35    77 1   
    77    35    78 1   
    78    35    79 1   
    79    36    80 1   
    80    36    81 1   
    81    36    82 1   
    82    37    38 1   
    83    37    39 1   
    84    37    83 1   
    85    38    84 1   
    86    39    40 2   
    87    39    41 1   
    88    41    54 1   
    89    41    87 1   
@<TRIPOS>SUBSTRUCTURE
     1 1KR         1 TEMP              0 ****  ****    0 ROOT
