@<TRIPOS>MOLECULE
molecule
   84    86     1     0     0
SMALL
bcc


@<TRIPOS>ATOM
      1 C16          0.0000     0.0000     0.0000 c          1 1KR       0.752100
      2 O17          1.2150     0.0000     0.0000 o          1 1KR      -0.622000
      3 O24         -0.6730     0.0000     1.1670 os         1 1KR      -0.431900
      4 C41          0.1190    -0.0000     2.3840 c3         1 1KR       0.216700
      5 C18         -0.7990    -0.0010     3.5800 ca         1 1KR      -0.101300
      6 C19         -1.2200    -1.1970     4.1280 ca         1 1KR      -0.101500
      7 C20         -2.0620    -1.1970     5.2240 ca         1 1KR      -0.133000
      8 C21         -2.4830    -0.0000     5.7720 ca         1 1KR      -0.116000
      9 C22         -2.0620     1.1970     5.2240 ca         1 1KR      -0.133000
     10 C23         -1.2150     1.1970     4.1310 ca         1 1KR      -0.101500
     11 N15         -0.6740     0.0060    -1.1670 ns         1 1KR      -0.559900
     12 C13          0.0580     0.0120    -2.4360 c3         1 1KR       0.061700
     13 C11         -0.8070     0.6180    -3.5110 c          1 1KR       0.650100
     14 O12         -1.9240     1.0070    -3.2440 o          1 1KR      -0.609100
     15 C14          0.4210    -1.4230    -2.8220 c3         1 1KR      -0.110100
     16 C28          1.5740     3.6950    -7.2780 cx         1 1KR       0.062700
     17 C27          0.2830     4.4480    -6.9460 cx         1 1KR      -0.138400
     18 C26          0.5320     3.0570    -6.3570 cx         1 1KR      -0.163700
     19 C25         -0.2890     1.8940    -6.9190 c3         1 1KR      -0.063400
     20 C9          -1.1780     1.3180    -5.8150 c3         1 1KR       0.117700
     21 C8          -2.0890     0.2390    -6.4060 c3         1 1KR      -0.092400
     22 C7          -3.0630    -0.2500    -5.3310 c3         1 1KR      -0.032100
     23 C6          -3.9590    -1.3110    -5.9130 ca         1 1KR      -0.082300
     24 C1          -3.5870    -2.6420    -5.8510 ca         1 1KR      -0.127000
     25 C2          -4.4090    -3.6150    -6.3840 ca         1 1KR      -0.126500
     26 C3          -5.6060    -3.2600    -6.9790 ca         1 1KR      -0.133000
     27 C4          -5.9790    -1.9310    -7.0410 ca         1 1KR      -0.126500
     28 C5          -5.1590    -0.9570    -6.5030 ca         1 1KR      -0.127000
     29 N10         -0.3380     0.7290    -4.7700 ns         1 1KR      -0.576900
     30 O40          1.7260     5.7800   -11.4210 o          1 1KR      -0.521100
     31 C39          2.4870     4.9000   -11.7470 c          1 1KR       0.587900
     32 C34          2.0630     3.4580   -11.6370 c3         1 1KR      -0.182700
     33 C35          2.1120     2.8050   -13.0190 c3         1 1KR      -0.065700
     34 C37          1.1640     3.5450   -13.9660 c3         1 1KR      -0.084400
     35 C38          1.3050     2.9730   -15.3780 c3         1 1KR      -0.092100
     36 C36          1.6810     1.3410   -12.9080 c3         1 1KR      -0.092100
     37 C32          3.0100     2.7180   -10.6890 c3         1 1KR       0.083100
     38 O33          4.3570     2.8840   -11.1380 oh         1 1KR      -0.574800
     39 C30          2.8710     3.2820    -9.2990 c          1 1KR       0.627100
     40 O31          3.8050     3.8580    -8.7810 o          1 1KR      -0.578100
     41 H37          0.7430    -0.8850     2.4090 h1         1 1KR       0.056200
     42 H38          0.7440     0.8840     2.4090 h1         1 1KR       0.056200
     43 H39         -0.8900    -2.1350     3.6990 ha         1 1KR       0.134000
     44 H40         -2.3920    -2.1350     5.6530 ha         1 1KR       0.132000
     45 H41         -3.1450    -0.0000     6.6300 ha         1 1KR       0.131000
     46 H42         -2.3900     2.1350     5.6550 ha         1 1KR       0.132000
     47 H43         -0.8840     2.1350     3.7020 ha         1 1KR       0.134000
     48 H36         -1.6740     0.0590    -1.1660 hn         1 1KR       0.347500
     49 H32          0.9630     0.5980    -2.3280 h1         1 1KR       0.094700
     50 H33          1.4960    -1.5070    -2.9290 hc         1 1KR       0.050700
     51 H34         -0.0560    -1.6760    -3.7610 hc         1 1KR       0.050700
     52 H35          0.0810    -2.1020    -2.0490 hc         1 1KR       0.050700
     53 H16          0.9450     2.6540    -9.0480 hn         1 1KR       0.315500
     54 H17          2.4580     4.0670    -6.7730 h1         1 1KR       0.127700
     55 H18         -0.4490     4.4940    -7.7430 hc         1 1KR       0.083200
     56 H19          0.3890     5.2740    -6.2530 hc         1 1KR       0.083200
     57 H20          0.7990     3.0490    -5.3070 hc         1 1KR       0.094700
     58 H21         -0.9090     2.2500    -7.7330 hc         1 1KR       0.050700
     59 H22          0.3790     1.1230    -7.2850 hc         1 1KR       0.050700
     60 H23         -1.7840     2.1090    -5.3890 h1         1 1KR       0.087700
     61 H24         -2.6460     0.6520    -7.2380 hc         1 1KR       0.047700
     62 H25         -3.6650     0.5820    -4.9850 hc         1 1KR       0.063200
     63 H26         -2.6490    -2.9210    -5.3850 ha         1 1KR       0.128000
     64 H27         -4.1170    -4.6570    -6.3360 ha         1 1KR       0.128000
     65 H28         -6.2500    -4.0240    -7.3990 ha         1 1KR       0.128000
     66 H29         -6.9170    -1.6530    -7.5050 ha         1 1KR       0.128000
     67 H30         -5.4510     0.0850    -6.5510 ha         1 1KR       0.128000
     68 H31          0.5970     0.4430    -4.9820 hn         1 1KR       0.319500
     69 H1          -1.4860    -0.5920    -6.7520 hc         1 1KR       0.047700
     70 H3          -2.5060    -0.6630    -4.4990 hc         1 1KR       0.063200
     71 H2           3.4590     5.1490   -12.1550 h4         1 1KR       0.023200
     72 H4           1.0520     3.4080   -11.2490 hc         1 1KR       0.076700
     73 H5           3.1220     2.8560   -13.4070 hc         1 1KR       0.071700
     74 H6           0.1430     3.4190   -13.6250 hc         1 1KR       0.047200
     75 H7           1.4140     4.5990   -13.9760 hc         1 1KR       0.047200
     76 H8           0.9900     3.7150   -16.1010 hc         1 1KR       0.036367
     77 H9           2.3410     2.7090   -15.5590 hc         1 1KR       0.036367
     78 H10          0.6860     2.0890   -15.4730 hc         1 1KR       0.036367
     79 H11          0.8070     1.2690   -12.2720 hc         1 1KR       0.036367
     80 H12          1.4430     0.9590   -13.8930 hc         1 1KR       0.036367
     81 H13          2.4880     0.7590   -12.4790 hc         1 1KR       0.036367
     82 H14          2.7600     1.6640   -10.6790 h1         1 1KR       0.051700
     83 H15          4.8680     2.1340   -10.8830 ho         1 1KR       0.413000
     84 N29          1.7090     3.1480    -8.6300 ns         1 1KR      -0.552900
@<TRIPOS>BOND
     1     8     7 ar
     2     8     9 ar
     3     7     6 ar
     4     9    10 ar
     5     6     5 ar
     6    10     5 ar
     7     5     4 1
     8    28    27 ar
     9    28    23 ar
    10    27    26 ar
    11    22    23 1
    12    22    21 1
    13    23    24 ar
    14     4     3 1
    15    26    25 ar
    16     3     1 1
    17    14    13 2
    18    30    31 2
    19    31    32 1
    20    20    21 1
    21    20    19 1
    22    20    29 1
    23    24    25 ar
    24    19    18 1
    25    34    33 1
    26    34    35 1
    27    17    18 1
    28    17    16 1
    29    38    37 1
    30     1     2 2
    31     1    11 1
    32    13    29 1
    33    13    12 1
    34    33    32 1
    35    33    36 1
    36    84    16 1
    37    84    39 1
    38    18    16 1
    39    32    37 1
    40    11    12 1
    41    12    15 1
    42    37    39 1
    43    39    40 2
    44    31    71 1
    45    32    72 1
    46    33    73 1
    47    34    74 1
    48    34    75 1
    49    35    76 1
    50    35    77 1
    51    35    78 1
    52    36    79 1
    53    36    80 1
    54    36    81 1
    55    37    82 1
    56    38    83 1
    57    84    53 1
    58    16    54 1
    59    17    55 1
    60    17    56 1
    61    18    57 1
    62    19    58 1
    63    19    59 1
    64    20    60 1
    65    21    61 1
    66    22    62 1
    67    24    63 1
    68    25    64 1
    69    26    65 1
    70    27    66 1
    71    28    67 1
    72    29    68 1
    73    12    49 1
    74    15    50 1
    75    15    51 1
    76    15    52 1
    77    11    48 1
    78     4    41 1
    79     4    42 1
    80     6    43 1
    81     7    44 1
    82     8    45 1
    83     9    46 1
    84    10    47 1
    85    21    69 1
    86    22    70 1
@<TRIPOS>SUBSTRUCTURE
     1 1KR         1 TEMP              0 ****  ****    0 ROOT
