@<TRIPOS>MOLECULE
molecule
   61    65     1     0     0
SMALL
bcc


@<TRIPOS>ATOM
      1 F1           0.0000     0.0000     0.0000 f          1 1KS      -0.129900
      2 C1           1.3510     0.0000     0.0000 ca         1 1KS       0.143900
      3 O1           6.2050    -0.9390     0.4830 o          1 1KS      -0.579100
      4 N1           6.2730     1.0340    -0.5350 n          1 1KS      -0.482800
      5 C10          7.7320     0.9790    -0.6480 c3         1 1KS       0.124700
      6 C11          8.2450     2.2730    -1.2840 c3         1 1KS      -0.096400
      7 C12          7.6740     2.4020    -2.6980 c3         1 1KS       0.158300
      8 C13          7.5650    -0.0080    -2.9340 c3         1 1KS       0.158300
      9 C14          8.1330    -0.2080    -1.5270 c3         1 1KS      -0.096400
     10 C15          7.6970     1.3900    -4.8220 ca         1 1KS       0.575200
     11 C16          8.6650     1.5950    -5.8310 ca         1 1KS      -0.125300
     12 C17          8.2040     1.7390    -7.1650 ca         1 1KS      -0.117300
     13 C18          9.1230     1.9430    -8.1970 ca         1 1KS      -0.111000
     14 C19         10.4550     2.0000    -7.9040 ca         1 1KS      -0.106000
     15 C2           2.0420     0.0000     1.2020 ca         1 1KS      -0.132000
     16 F2           3.2570    -0.0020     3.5760 f          1 1KS      -0.213633
     17 N2           8.0860     1.2430    -3.5010 nh         1 1KS      -0.721300
     18 C20         10.9080     1.8590    -6.5950 ca         1 1KS      -0.125000
     19 C21         10.0370     1.6580    -5.5650 ca         1 1KS      -0.084000
     20 C22          6.7620     1.6630    -7.3890 ca         1 1KS       0.437800
     21 C23          6.1980     1.8020    -8.7450 cc         1 1KS      -0.130800
     22 C24          6.4190     0.9620    -9.8150 cd         1 1KS      -0.326300
     23 C25          5.6970     1.4570   -10.9000 cd         1 1KS       0.330200
     24 C3           3.4210    -0.0010     1.2080 ca         1 1KS      -0.120300
     25 N3           5.9740     1.4660    -6.3410 nb         1 1KS      -0.304000
     26 C4           4.1700    -0.0030     2.5160 c3         1 1KS       0.673200
     27 F4           4.9730    -1.1450     2.5920 f          1 1KS      -0.213633
     28 N4           6.4170     1.3440    -5.1460 nb         1 1KS      -0.384000
     29 C5           4.1210    -0.0020     0.0010 ca         1 1KS      -0.106600
     30 N5           5.0670     2.5420   -10.5240 nc         1 1KS      -0.502800
     31 C6           3.4200    -0.0020    -1.2080 ca         1 1KS      -0.083000
     32 N6           5.3540     2.7850    -9.1760 na         1 1KS       0.086400
     33 C7           2.0420    -0.0060    -1.2020 ca         1 1KS      -0.146000
     34 C8           5.5980    -0.0030     0.0010 c          1 1KS       0.665700
     35 C9           5.5450     2.2160    -1.0040 c3         1 1KS       0.077300
     36 H1           8.1720     0.8620     0.3360 h1         1 1KS       0.072700
     37 H2           9.3270     2.2460    -1.3340 hc         1 1KS       0.067700
     38 H3           7.9260     3.1190    -0.6880 hc         1 1KS       0.067700
     39 H4           8.0500     3.3080    -3.1570 h1         1 1KS       0.052450
     40 H5           6.5930     2.4380    -2.6480 h1         1 1KS       0.052450
     41 H6           6.4840     0.0440    -2.8820 h1         1 1KS       0.052450
     42 H7           7.8610    -0.8380    -3.5630 h1         1 1KS       0.052450
     43 H8           9.2130    -0.2690    -1.5800 hc         1 1KS       0.067700
     44 H9           7.7330    -1.1210    -1.1040 hc         1 1KS       0.067700
     45 H10          8.7820     2.0540    -9.2190 ha         1 1KS       0.155000
     46 H11         11.1700     2.1590    -8.7020 ha         1 1KS       0.138000
     47 H12          1.4970     0.0050     2.1380 ha         1 1KS       0.169000
     48 H13         11.9710     1.9090    -6.3910 ha         1 1KS       0.137000
     49 H14         10.4030     1.5500    -4.5520 ha         1 1KS       0.160000
     50 H15          7.0410     0.0750    -9.8120 ha         1 1KS       0.159000
     51 H16          5.6650     1.0190   -11.8900 h4         1 1KS       0.050100
     52 H17          4.2190     3.5180    -7.5780 h1         1 1KS       0.059367
     53 H18          5.6810     4.4450    -7.9450 h1         1 1KS       0.059367
     54 H19          4.2680     4.5650    -9.0030 h1         1 1KS       0.059367
     55 H20          3.9590    -0.0050    -2.1480 ha         1 1KS       0.158000
     56 H21          1.4980    -0.0070    -2.1380 ha         1 1KS       0.157000
     57 H22          5.1980     2.0490    -2.0160 h1         1 1KS       0.048700
     58 H23          4.6960     2.3990    -0.3560 h1         1 1KS       0.048700
     59 H24          6.2040     3.0760    -0.9860 h1         1 1KS       0.048700
     60 C26          4.8480     3.9010    -8.3730 c3         1 1KS       0.061600
     61 F3           4.9740     1.1400     2.5920 f          1 1KS      -0.213633
@<TRIPOS>BOND
     1    30    23 2   
     2    30    32 1   
     3    16    26 1   
     4    27    26 1   
     5    60    32 1   
     6    23    22 1   
     7    32    21 1   
     8     1     2 1   
     9    15     2 ar  
    10    15    24 ar  
    11    35     4 1   
    12    26    24 1   
    13    26    61 1   
    14    25    28 ar  
    15    25    20 ar  
    16     2    33 ar  
    17    22    21 2   
    18    21    20 1   
    19    24    29 ar  
    20    28    10 ar  
    21     9     8 1   
    22     9     5 1   
    23    20    12 ar  
    24    33    31 ar  
    25     4     5 1   
    26     4    34 1   
    27    29    31 ar  
    28    29    34 1   
    29     8    17 1   
    30     5     6 1   
    31    34     3 2   
    32    10    17 1   
    33    10    11 ar  
    34    12    11 ar  
    35    12    13 ar  
    36    17     7 1   
    37     6     7 1   
    38    11    19 ar  
    39    13    14 ar  
    40    19    18 ar  
    41    14    18 ar  
    42     5    36 1   
    43     6    37 1   
    44     6    38 1   
    45     7    39 1   
    46     7    40 1   
    47     8    41 1   
    48     8    42 1   
    49     9    43 1   
    50     9    44 1   
    51    13    45 1   
    52    14    46 1   
    53    15    47 1   
    54    18    48 1   
    55    19    49 1   
    56    22    50 1   
    57    23    51 1   
    58    60    52 1   
    59    60    53 1   
    60    60    54 1   
    61    31    55 1   
    62    33    56 1   
    63    35    57 1   
    64    35    58 1   
    65    35    59 1   
@<TRIPOS>SUBSTRUCTURE
     1 1KS         1 TEMP              0 ****  ****    0 ROOT
