@<TRIPOS>MOLECULE
1KS
   61    65     1     0     0
SMALL
bcc


@<TRIPOS>ATOM
      1 F1           0.0000     0.0000     0.0000 f          1 1KS      -0.119900
      2 C1           1.3510     0.0000     0.0000 ca         1 1KS       0.114900
      3 O1           6.2050    -0.9390     0.4830 o          1 1KS      -0.618100
      4 N1           6.2730     1.0340    -0.5350 n          1 1KS      -0.137800
      5 C10          7.7320     0.9790    -0.6480 c3         1 1KS       0.043700
      6 C11          8.2450     2.2730    -1.2840 c3         1 1KS      -0.048900
      7 C12          7.6740     2.4020    -2.6980 c3         1 1KS       0.124300
      8 C13          7.5650    -0.0080    -2.9340 c3         1 1KS       0.124300
      9 C14          8.1330    -0.2080    -1.5270 c3         1 1KS      -0.048900
     10 C15          7.6970     1.3900    -4.8220 ca         1 1KS       0.481200
     11 C16          8.6650     1.5950    -5.8310 ca         1 1KS      -0.129300
     12 C17          8.2040     1.7390    -7.1650 ca         1 1KS      -0.115300
     13 C18          9.1230     1.9430    -8.1970 ca         1 1KS      -0.088000
     14 C19         10.4550     2.0000    -7.9040 ca         1 1KS      -0.076000
     15 C2           2.0420     0.0000     1.2020 ca         1 1KS      -0.088000
     16 F2           3.2570    -0.0020     3.5760 f          1 1KS      -0.202300
     17 N2           8.0860     1.2430    -3.5010 nh         1 1KS      -0.506300
     18 C20         10.9080     1.8590    -6.5950 ca         1 1KS      -0.094000
     19 C21         10.0370     1.6580    -5.5650 ca         1 1KS      -0.058000
     20 C22          6.7620     1.6630    -7.3890 ca         1 1KS       0.439800
     21 C23          6.1980     1.8020    -8.7450 cc         1 1KS      -0.295800
     22 C24          6.4190     0.9620    -9.8150 cd         1 1KS      -0.314300
     23 C25          5.6970     1.4570   -10.9000 cd         1 1KS       0.391200
     24 C3           3.4210    -0.0010     1.2080 ca         1 1KS      -0.142300
     25 N3           5.9740     1.4660    -6.3410 nb         1 1KS      -0.279000
     26 C4           4.1700    -0.0030     2.5160 c3         1 1KS       0.643200
     27 F4           4.9730    -1.1450     2.5920 f          1 1KS      -0.202300
     28 N4           6.4170     1.3440    -5.1460 nb         1 1KS      -0.341000
     29 C5           4.1210    -0.0020     0.0010 ca         1 1KS      -0.095600
     30 N5           5.0670     2.5420   -10.5240 nc         1 1KS      -0.646800
     31 C6           3.4200    -0.0020    -1.2080 ca         1 1KS      -0.060000
     32 N6           5.3540     2.7850    -9.1760 na         1 1KS       0.518400
     33 C7           2.0420    -0.0060    -1.2020 ca         1 1KS      -0.104000
     34 C8           5.5980    -0.0030     0.0010 c          1 1KS       0.591700
     35 C9           5.5450     2.2160    -1.0040 c3         1 1KS       0.031300
     36 H1           8.1720     0.8620     0.3360 h1         1 1KS       0.046700
     37 H2           9.3270     2.2460    -1.3340 hc         1 1KS       0.040700
     38 H3           7.9260     3.1190    -0.6880 hc         1 1KS       0.040700
     39 H4           8.0500     3.3080    -3.1570 h1         1 1KS       0.029200
     40 H5           6.5930     2.4380    -2.6480 h1         1 1KS       0.029200
     41 H6           6.4840     0.0440    -2.8820 h1         1 1KS       0.029200
     42 H7           7.8610    -0.8380    -3.5630 h1         1 1KS       0.029200
     43 H8           9.2130    -0.2690    -1.5800 hc         1 1KS       0.040700
     44 H9           7.7330    -1.1210    -1.1040 hc         1 1KS       0.040700
     45 H10          8.7820     2.0540    -9.2190 ha         1 1KS       0.128000
     46 H11         11.1700     2.1590    -8.7020 ha         1 1KS       0.107000
     47 H12          1.4970     0.0050     2.1380 ha         1 1KS       0.140000
     48 H13         11.9710     1.9090    -6.3910 ha         1 1KS       0.108000
     49 H14         10.4030     1.5500    -4.5520 ha         1 1KS       0.129000
     50 H15          7.0410     0.0750    -9.8120 ha         1 1KS       0.138000
     51 H16          5.6650     1.0190   -11.8900 h4         1 1KS       0.005100
     52 H17          4.2190     3.5180    -7.5780 h1         1 1KS       0.026033
     53 H18          5.6810     4.4450    -7.9450 h1         1 1KS       0.026033
     54 H19          4.2680     4.5650    -9.0030 h1         1 1KS       0.026033
     55 H20          3.9590    -0.0050    -2.1480 ha         1 1KS       0.125000
     56 H21          1.4980    -0.0070    -2.1380 ha         1 1KS       0.127000
     57 H22          5.1980     2.0490    -2.0160 h1         1 1KS       0.028033
     58 H23          4.6960     2.3990    -0.3560 h1         1 1KS       0.028033
     59 H24          6.2040     3.0760    -0.9860 h1         1 1KS       0.028033
     60 C26          4.8480     3.9010    -8.3730 c3         1 1KS       0.013600
     61 F3           4.9740     1.1400     2.5920 f          1 1KS      -0.202300
@<TRIPOS>BOND
     1     1     2 1   
     2     2    15 ar  
     3     2    33 ar  
     4     3    34 2   
     5     4     5 1   
     6     4    34 1   
     7     4    35 1   
     8     5     6 1   
     9     5     9 1   
    10     5    36 1   
    11     6     7 1   
    12     6    37 1   
    13     6    38 1   
    14     7    17 1   
    15     7    39 1   
    16     7    40 1   
    17     8     9 1   
    18     8    17 1   
    19     8    41 1   
    20     8    42 1   
    21     9    43 1   
    22     9    44 1   
    23    10    11 ar  
    24    10    17 1   
    25    10    28 ar  
    26    11    12 ar  
    27    11    19 ar  
    28    12    13 ar  
    29    12    20 ar  
    30    13    14 ar  
    31    13    45 1   
    32    14    18 ar  
    33    14    46 1   
    34    15    24 ar  
    35    15    47 1   
    36    16    26 1   
    37    18    19 ar  
    38    18    48 1   
    39    19    49 1   
    40    20    21 1   
    41    20    25 ar  
    42    21    22 2   
    43    21    32 1   
    44    22    23 1   
    45    22    50 1   
    46    23    30 2   
    47    23    51 1   
    48    24    26 1   
    49    24    29 ar  
    50    25    28 ar  
    51    26    27 1   
    52    26    61 1   
    53    29    31 ar  
    54    29    34 1   
    55    30    32 1   
    56    31    33 ar  
    57    31    55 1   
    58    32    60 1   
    59    33    56 1   
    60    35    57 1   
    61    35    58 1   
    62    35    59 1   
    63    52    60 1   
    64    53    60 1   
    65    54    60 1   
@<TRIPOS>SUBSTRUCTURE
     1 1KS         1 TEMP              0 ****  ****    0 ROOT
