@<TRIPOS>MOLECULE
1KS
   62    66     1     0     0
SMALL
bcc


@<TRIPOS>ATOM
      1 F1           0.4950    -0.1640     2.2000 f          1 1KS      -0.087900
      2 C1           1.6370    -0.3000     1.5020 ca         1 1KS       0.200900
      3 O1           5.4470    -0.1080    -1.8160 o          1 1KS      -0.394100
      4 N1           6.2290    -1.7790    -0.3610 nx         1 1KS      -0.595200
      5 C10          7.6670    -1.3420    -0.6140 c3         1 1KS       0.143500
      6 C11          8.1230    -1.5600    -2.0550 c3         1 1KS      -0.136900
      7 C12          9.5850    -1.1210    -2.2030 c3         1 1KS       0.175800
      8 C13         10.0470    -1.5640     0.1240 c3         1 1KS       0.175800
      9 C14          8.6100    -2.0350     0.3740 c3         1 1KS      -0.136900
     10 C15         11.0010    -3.0010    -1.5770 ca         1 1KS       0.521200
     11 C16         12.4250    -3.1910    -1.7650 ca         1 1KS      -0.099300
     12 C17         12.8570    -4.5130    -2.0710 ca         1 1KS      -0.115300
     13 C18         14.2320    -4.7530    -2.3100 ca         1 1KS      -0.108000
     14 C19         15.1420    -3.7240    -2.2230 ca         1 1KS      -0.104000
     15 C2           2.8770    -0.0730     2.1400 ca         1 1KS      -0.122000
     16 F2           5.2540     0.8140     3.2950 f          1 1KS      -0.222967
     17 N2          10.5250    -1.6780    -1.2440 nh         1 1KS      -0.701300
     18 C20         14.7150    -2.4160    -1.8970 ca         1 1KS      -0.104000
     19 C21         13.3820    -2.1510    -1.6760 ca         1 1KS      -0.105000
     20 C22         11.8440    -5.5380    -2.1450 ca         1 1KS       0.475800
     21 C23         12.2220    -6.9280    -2.3600 cc         1 1KS      -0.200800
     22 C24         13.2330    -7.6690    -1.7140 cd         1 1KS      -0.261300
     23 C25         13.1260    -8.9920    -2.2690 cd         1 1KS       0.293200
     24 C3           4.0600    -0.2190     1.4230 ca         1 1KS      -0.103300
     25 N3          10.5320    -5.2350    -1.9850 nb         1 1KS      -0.331000
     26 C4           5.3720     0.0650     2.1600 c3         1 1KS       0.678200
     27 F4           6.3160     0.7140     1.3990 f          1 1KS      -0.222967
     28 N4          10.1370    -4.0420    -1.7170 nb         1 1KS      -0.386000
     29 C5           4.0270    -0.5950     0.0700 ca         1 1KS      -0.180600
     30 N5          12.1210    -9.0390    -3.1850 nc         1 1KS      -0.484800
     31 C6           2.7910    -0.7940    -0.5630 ca         1 1KS      -0.043000
     32 N6          11.5730    -7.8210    -3.2390 na         1 1KS       0.122400
     33 C7           1.6000    -0.6590     0.1410 ca         1 1KS      -0.139000
     34 C8           5.2260    -0.7240    -0.7840 c          1 1KS       0.566700
     35 C9           5.8940    -3.0670    -1.0190 c3         1 1KS       0.085100
     36 C26         10.4640    -7.4790    -4.1000 c3         1 1KS       0.038600
     37 F3           6.0260    -1.0840     2.5580 f          1 1KS      -0.222967
     38 H1           7.6760    -0.2280    -0.3980 hx         1 1KS       0.105700
     39 H2           8.0280    -2.6380    -2.3490 hc         1 1KS       0.079950
     40 H3           7.4960    -0.9470    -2.7550 hc         1 1KS       0.079950
     41 H4           9.9240    -1.3780    -3.2450 h1         1 1KS       0.079950
     42 H5           9.6420    -0.0010    -2.0820 h1         1 1KS       0.079950
     43 H6          10.7310    -2.1430     0.8060 h1         1 1KS       0.079950
     44 H7          10.1230    -0.4710     0.3950 h1         1 1KS       0.079950
     45 H8           8.3320    -1.7700     1.4300 hc         1 1KS       0.079950
     46 H9           8.5530    -3.1500     0.2650 hc         1 1KS       0.079950
     47 H10         14.5590    -5.7710    -2.5770 ha         1 1KS       0.165000
     48 H11         16.2120    -3.9080    -2.4100 ha         1 1KS       0.153000
     49 H12          2.8930     0.2320     3.2020 ha         1 1KS       0.197000
     50 H13         15.4620    -1.6100    -1.8290 ha         1 1KS       0.151000
     51 H14         13.0550    -1.1270    -1.4330 ha         1 1KS       0.158000
     52 H15         13.9270    -7.3300    -0.9530 ha         1 1KS       0.171000
     53 H16         13.7310    -9.8700    -2.0340 h4         1 1KS       0.055100
     54 H17         10.3490    -8.2470    -4.9110 h1         1 1KS       0.064700
     55 H18          9.5210    -7.4380    -3.4920 h1         1 1KS       0.064700
     56 H19         10.6580    -6.4760    -4.5610 h1         1 1KS       0.064700
     57 H20          2.7600    -1.0500    -1.6370 ha         1 1KS       0.171000
     58 H21          0.6290    -0.8190    -0.3590 ha         1 1KS       0.191000
     59 H22          4.9090    -3.4370    -0.6300 hx         1 1KS       0.107700
     60 H23          6.6980    -3.8210    -0.7910 hx         1 1KS       0.107700
     61 H24          5.8320    -2.9180    -2.1300 hx         1 1KS       0.107700
     62 H111         6.1390    -1.9140     0.6590 hn         1 1KS       0.457800
@<TRIPOS>BOND
     1     1     2 1   
     2     2    15 ar  
     3     2    33 ar  
     4     3    34 2   
     5     4     5 1   
     6     4    34 1   
     7     4    35 1   
     8     4    62 1   
     9     5     6 1   
    10     5     9 1   
    11     5    38 1   
    12     6     7 1   
    13     6    39 1   
    14     6    40 1   
    15     7    17 1   
    16     7    41 1   
    17     7    42 1   
    18     8     9 1   
    19     8    17 1   
    20     8    43 1   
    21     8    44 1   
    22     9    45 1   
    23     9    46 1   
    24    10    11 ar  
    25    10    17 1   
    26    10    28 ar  
    27    11    12 ar  
    28    11    19 ar  
    29    12    13 ar  
    30    12    20 ar  
    31    13    14 ar  
    32    13    47 1   
    33    14    18 ar  
    34    14    48 1   
    35    15    24 ar  
    36    15    49 1   
    37    16    26 1   
    38    18    19 ar  
    39    18    50 1   
    40    19    51 1   
    41    20    21 1   
    42    20    25 ar  
    43    21    22 2   
    44    21    32 1   
    45    22    23 1   
    46    22    52 1   
    47    23    30 2   
    48    23    53 1   
    49    24    26 1   
    50    24    29 ar  
    51    25    28 ar  
    52    26    27 1   
    53    26    37 1   
    54    29    31 ar  
    55    29    34 1   
    56    30    32 1   
    57    31    33 ar  
    58    31    57 1   
    59    32    36 1   
    60    33    58 1   
    61    35    59 1   
    62    35    60 1   
    63    35    61 1   
    64    36    54 1   
    65    36    55 1   
    66    36    56 1   
@<TRIPOS>SUBSTRUCTURE
     1 1KS         1 TEMP              0 ****  ****    0 ROOT
