@<TRIPOS>MOLECULE
1KT
   70    74     1     0     0
SMALL
bcc


@<TRIPOS>ATOM
      1 O3          -0.0290    -0.4450     0.0390 o          1 1KT      -0.630500
      2 C11          1.1930    -0.2080     0.0030 c          1 1KT       0.686500
      3 C12          1.9900    -0.1250     1.3200 c3         1 1KT       0.031700
      4 N10          1.8490     0.0290    -1.2060 n          1 1KT      -0.444800
      5 C9           1.2590    -0.5110    -2.4130 c3         1 1KT       0.078000
      6 C8           1.9180    -1.8210    -2.8520 c3         1 1KT      -0.069100
      7 C7           3.3910    -1.6390    -2.9630 ca         1 1KT      -0.001300
      8 C6           4.1110    -2.4750    -3.8240 ca         1 1KT      -0.234000
      9 C5           5.4750    -2.2500    -4.0200 ca         1 1KT       0.167100
     10 O2           6.2860    -3.0140    -4.8330 os         1 1KT      -0.325900
     11 C27          5.6840    -4.1640    -5.4190 c3         1 1KT       0.111700
     12 C4           6.1230    -1.1670    -3.3990 ca         1 1KT      -0.235000
     13 C3           5.3870    -0.3500    -2.5410 ca         1 1KT       0.160100
     14 O1           5.9250     0.7680    -1.9290 os         1 1KT      -0.336900
     15 C26          7.2820     1.0710    -2.2360 c3         1 1KT       0.112700
     16 C2           4.0240    -0.6080    -2.2570 ca         1 1KT      -0.166300
     17 C1           3.2850     0.2760    -1.2780 c3         1 1KT       0.161000
     18 C16          4.0220     0.2710     0.1170 c3         1 1KT       0.103700
     19 C15          4.1100     1.7190     0.6420 c3         1 1KT      -0.095400
     20 C14          2.7480     2.2750     1.0030 c3         1 1KT      -0.084400
     21 C13          1.9390     1.3160     1.8530 c3         1 1KT      -0.089400
     22 N17          3.3470    -0.5820     1.0750 n          1 1KT      -0.458800
     23 C18          3.9560    -1.5240     1.8770 c          1 1KT       0.588100
     24 O4           3.3380    -2.0930     2.7970 o          1 1KT      -0.582100
     25 C19          5.4080    -1.8950     1.5900 c          1 1KT       0.534700
     26 O5           6.3180    -1.1490     1.9580 o          1 1KT      -0.504100
     27 C20          5.6240    -3.1810     0.9050 ca         1 1KT      -0.119600
     28 C21          4.5430    -3.9780     0.5190 ca         1 1KT      -0.164500
     29 C25          6.9390    -3.5820     0.6390 ca         1 1KT      -0.164500
     30 C24          7.1740    -4.7940    -0.0180 ca         1 1KT       0.119100
     31 O8           8.4320    -5.2640    -0.3410 os         1 1KT      -0.313900
     32 C30          9.5300    -4.5540     0.2240 c3         1 1KT       0.109700
     33 C23          6.0960    -5.6130    -0.4200 ca         1 1KT       0.082100
     34 O7           6.2870    -6.8690    -0.9610 os         1 1KT      -0.308900
     35 C29          6.8590    -6.8620    -2.2700 c3         1 1KT       0.116700
     36 C22          4.7770    -5.1820    -0.1550 ca         1 1KT       0.119100
     37 O6           3.7800    -6.0150    -0.6170 os         1 1KT      -0.313900
     38 C28          2.4600    -5.7200    -0.1680 c3         1 1KT       0.109700
     39 H1           1.4860    -0.8140     2.0630 h1         1 1KT       0.121700
     40 H2           1.3830     0.2570    -3.2290 h1         1 1KT       0.073200
     41 H3           0.1570    -0.6780    -2.2470 h1         1 1KT       0.073200
     42 H4           1.6910    -2.6400    -2.1180 hc         1 1KT       0.064200
     43 H5           1.4880    -2.1260    -3.8420 hc         1 1KT       0.064200
     44 H6           3.5900    -3.2920    -4.3410 ha         1 1KT       0.144000
     45 H7           6.5250    -4.6360    -5.9870 h1         1 1KT       0.047700
     46 H8           5.3020    -4.8560    -4.6290 h1         1 1KT       0.047700
     47 H9           4.8600    -3.8660    -6.1120 h1         1 1KT       0.047700
     48 H10          7.1870    -0.9930    -3.6090 ha         1 1KT       0.158000
     49 H11          7.4730     2.0080    -1.6540 h1         1 1KT       0.049033
     50 H12          7.4080     1.2520    -3.3300 h1         1 1KT       0.049033
     51 H13          7.9560     0.2490    -1.8910 h1         1 1KT       0.049033
     52 H14          3.3900     1.3340    -1.6840 h1         1 1KT       0.075700
     53 H15          5.0730    -0.1080    -0.0420 h1         1 1KT       0.091700
     54 H16          4.5940     2.3500    -0.1470 hc         1 1KT       0.060200
     55 H17          4.7780     1.7340     1.5440 hc         1 1KT       0.060200
     56 H18          2.8780     3.2400     1.5600 hc         1 1KT       0.050700
     57 H19          2.1810     2.5100     0.0640 hc         1 1KT       0.050700
     58 H20          0.8650     1.6390     1.8790 hc         1 1KT       0.064200
     59 H21          2.3260     1.3210     2.9050 hc         1 1KT       0.064200
     60 H22          3.5150    -3.6620     0.7530 ha         1 1KT       0.160500
     61 H23          7.7700    -2.9370     0.9610 ha         1 1KT       0.160500
     62 H24          9.4450    -4.5080     1.3360 h1         1 1KT       0.049200
     63 H25          9.5930    -3.5260    -0.2090 h1         1 1KT       0.049200
     64 H26         10.4160    -5.1670    -0.0820 h1         1 1KT       0.049200
     65 H27          6.9250    -7.9490    -2.5270 h1         1 1KT       0.044033
     66 H28          7.8720    -6.3930    -2.2520 h1         1 1KT       0.044033
     67 H29          6.1890    -6.3250    -2.9840 h1         1 1KT       0.044033
     68 H30          1.8580    -6.5780    -0.5640 h1         1 1KT       0.049200
     69 H31          2.1060    -4.7550    -0.6080 h1         1 1KT       0.049200
     70 H32          2.4140    -5.6850     0.9470 h1         1 1KT       0.049200
@<TRIPOS>BOND
     1     1     2 2   
     2     2     3 1   
     3     2     4 1   
     4     3    21 1   
     5     3    22 1   
     6     3    39 1   
     7     4     5 1   
     8     4    17 1   
     9     5     6 1   
    10     5    40 1   
    11     5    41 1   
    12     6     7 1   
    13     6    42 1   
    14     6    43 1   
    15     7     8 ar  
    16     7    16 ar  
    17     8     9 ar  
    18     8    44 1   
    19     9    10 1   
    20     9    12 ar  
    21    10    11 1   
    22    11    45 1   
    23    11    46 1   
    24    11    47 1   
    25    12    13 ar  
    26    12    48 1   
    27    13    14 1   
    28    13    16 ar  
    29    14    15 1   
    30    15    49 1   
    31    15    50 1   
    32    15    51 1   
    33    16    17 1   
    34    17    18 1   
    35    17    52 1   
    36    18    19 1   
    37    18    22 1   
    38    18    53 1   
    39    19    20 1   
    40    19    54 1   
    41    19    55 1   
    42    20    21 1   
    43    20    56 1   
    44    20    57 1   
    45    21    58 1   
    46    21    59 1   
    47    22    23 1   
    48    23    24 2   
    49    23    25 1   
    50    25    26 2   
    51    25    27 1   
    52    27    28 ar  
    53    27    29 ar  
    54    28    36 ar  
    55    28    60 1   
    56    29    30 ar  
    57    29    61 1   
    58    30    31 1   
    59    30    33 ar  
    60    31    32 1   
    61    32    62 1   
    62    32    63 1   
    63    32    64 1   
    64    33    34 1   
    65    33    36 ar  
    66    34    35 1   
    67    35    65 1   
    68    35    66 1   
    69    35    67 1   
    70    36    37 1   
    71    37    38 1   
    72    38    68 1   
    73    38    69 1   
    74    38    70 1   
@<TRIPOS>SUBSTRUCTURE
     1 1KT         1 TEMP              0 ****  ****    0 ROOT
