@<TRIPOS>MOLECULE
1KT
   70    74     1     0     0
SMALL
bcc


@<TRIPOS>ATOM
      1 O3           0.0000     0.0000     0.0000 o          1 1KT      -0.679500
      2 C11          1.2130     0.0000     0.0000 c          1 1KT       0.623500
      3 C12          1.9550     0.0000     1.3150 c3         1 1KT      -0.043300
      4 N10          1.8740    -0.0050    -1.1650 n          1 1KT      -0.126800
      5 C9           1.1050    -0.1990    -2.4140 c3         1 1KT       0.038000
      6 C8           1.5530    -1.5220    -3.0320 c3         1 1KT       0.009900
      7 C7           3.0540    -1.6320    -3.0560 ca         1 1KT       0.005700
      8 C6           3.6210    -2.5490    -3.9310 ca         1 1KT      -0.184000
      9 C5           4.9950    -2.7070    -3.9950 ca         1 1KT       0.202100
     10 O2           5.5370    -3.6060    -4.8570 os         1 1KT      -0.304900
     11 C27          6.9620    -3.7150    -4.8700 c3         1 1KT       0.244700
     12 C4           5.8160    -1.9440    -3.1790 ca         1 1KT      -0.315000
     13 C3           5.2520    -1.0270    -2.3090 ca         1 1KT       0.207100
     14 O1           6.0520    -0.2760    -1.5080 os         1 1KT      -0.305900
     15 C26          7.4620    -0.4890    -1.6160 c3         1 1KT       0.237700
     16 C2           3.8700    -0.8670    -2.2510 ca         1 1KT      -0.187300
     17 C1           3.3100     0.1620    -1.3060 c3         1 1KT       0.103000
     18 C16          4.0720     0.1690     0.0080 c3         1 1KT      -0.021300
     19 C15          4.2610     1.6160     0.4810 c3         1 1KT      -0.033400
     20 C14          2.8870     2.2470     0.7180 c3         1 1KT      -0.046400
     21 C13          2.1290     1.4460     1.7910 c3         1 1KT      -0.030400
     22 N17          3.2990    -0.5530     1.0350 n          1 1KT      -0.141800
     23 C18          3.7840    -1.6350     1.6760 c          1 1KT       0.526100
     24 O4           4.8540    -2.1040     1.3510 o          1 1KT      -0.624100
     25 C19          3.0030    -2.2570     2.7860 c          1 1KT       0.567700
     26 O5           2.1380    -3.0720     2.5380 o          1 1KT      -0.523100
     27 C20          3.2810    -1.8810     4.1800 ca         1 1KT      -0.116600
     28 C21          2.6230    -2.5390     5.2280 ca         1 1KT      -0.187000
     29 C25          4.2080    -0.8700     4.4640 ca         1 1KT      -0.187000
     30 C24          4.4660    -0.5200     5.7730 ca         1 1KT       0.147600
     31 O8           5.3670     0.4620     6.0500 os         1 1KT      -0.291400
     32 C30          6.0060     1.0880     4.9360 c3         1 1KT       0.238700
     33 C23          3.8060    -1.1720     6.8140 ca         1 1KT       0.080100
     34 O7           4.0620    -0.8250     8.1020 os         1 1KT      -0.312900
     35 C29          5.1210    -1.5220     8.7630 c3         1 1KT       0.254700
     36 C22          2.8870    -2.1830     6.5360 ca         1 1KT       0.147600
     37 O6           2.2450    -2.8160     7.5550 os         1 1KT      -0.291400
     38 C28          1.3170    -3.8430     7.1980 c3         1 1KT       0.238700
     39 H1           1.4360    -0.5950     2.0560 h1         1 1KT       0.075700
     40 H2           0.0500    -0.2570    -2.1750 h1         1 1KT       0.044200
     41 H3           1.3310     0.6090    -3.1000 h1         1 1KT       0.044200
     42 H4           1.1900    -1.5630    -4.0520 hc         1 1KT       0.035700
     43 H5           1.1590    -2.3320    -2.4310 hc         1 1KT       0.035700
     44 H6           2.9820    -3.1470    -4.5690 ha         1 1KT       0.124000
     45 H7           7.3110    -4.0130    -3.8880 h1         1 1KT      -0.002300
     46 H8           7.3950    -2.7570    -5.1320 h1         1 1KT      -0.002300
     47 H9           7.2610    -4.4580    -5.5990 h1         1 1KT      -0.002300
     48 H10          6.8910    -2.0630    -3.2240 ha         1 1KT       0.141000
     49 H11          7.6910    -1.5210    -1.3810 h1         1 1KT       0.001367
     50 H12          7.7830    -0.2690    -2.6270 h1         1 1KT       0.001367
     51 H13          7.9790     0.1630    -0.9230 h1         1 1KT       0.001367
     52 H14          3.4690     1.1300    -1.7640 h1         1 1KT       0.036700
     53 H15          5.0380    -0.3030    -0.1250 h1         1 1KT       0.124700
     54 H16          4.8260     1.6230     1.4050 hc         1 1KT       0.025700
     55 H17          4.7900     2.1780    -0.2790 hc         1 1KT       0.025700
     56 H18          2.3210     2.2350    -0.2060 hc         1 1KT       0.026200
     57 H19          3.0140     3.2690     1.0560 hc         1 1KT       0.026200
     58 H20          2.6950     1.4560     2.7140 hc         1 1KT       0.031700
     59 H21          1.1550     1.8920     1.9520 hc         1 1KT       0.031700
     60 H22          1.9090    -3.3240     5.0130 ha         1 1KT       0.139000
     61 H23          4.7560    -0.3970     3.6590 ha         1 1KT       0.139000
     62 H24          6.5050     0.3360     4.3370 h1         1 1KT       0.000200
     63 H25          5.2640     1.5960     4.3330 h1         1 1KT       0.000200
     64 H26          6.7340     1.8050     5.2940 h1         1 1KT       0.000200
     65 H27          4.7320    -2.0150     9.6460 h1         1 1KT      -0.007967
     66 H28          5.5410    -2.2610     8.0920 h1         1 1KT      -0.007967
     67 H29          5.8910    -0.8170     9.0520 h1         1 1KT      -0.007967
     68 H30          0.5290    -3.4200     6.5860 h1         1 1KT       0.000200
     69 H31          0.8870    -4.2700     8.0960 h1         1 1KT       0.000200
     70 H32          1.8310    -4.6160     6.6400 h1         1 1KT       0.000200
@<TRIPOS>BOND
     1     1     2 2   
     2     2     3 1   
     3     2     4 1   
     4     3    21 1   
     5     3    22 1   
     6     3    39 1   
     7     4     5 1   
     8     4    17 1   
     9     5     6 1   
    10     5    40 1   
    11     5    41 1   
    12     6     7 1   
    13     6    42 1   
    14     6    43 1   
    15     7     8 ar  
    16     7    16 ar  
    17     8     9 ar  
    18     8    44 1   
    19     9    10 1   
    20     9    12 ar  
    21    10    11 1   
    22    11    45 1   
    23    11    46 1   
    24    11    47 1   
    25    12    13 ar  
    26    12    48 1   
    27    13    14 1   
    28    13    16 ar  
    29    14    15 1   
    30    15    49 1   
    31    15    50 1   
    32    15    51 1   
    33    16    17 1   
    34    17    18 1   
    35    17    52 1   
    36    18    19 1   
    37    18    22 1   
    38    18    53 1   
    39    19    20 1   
    40    19    54 1   
    41    19    55 1   
    42    20    21 1   
    43    20    56 1   
    44    20    57 1   
    45    21    58 1   
    46    21    59 1   
    47    22    23 1   
    48    23    24 2   
    49    23    25 1   
    50    25    26 2   
    51    25    27 1   
    52    27    28 ar  
    53    27    29 ar  
    54    28    36 ar  
    55    28    60 1   
    56    29    30 ar  
    57    29    61 1   
    58    30    31 1   
    59    30    33 ar  
    60    31    32 1   
    61    32    62 1   
    62    32    63 1   
    63    32    64 1   
    64    33    34 1   
    65    33    36 ar  
    66    34    35 1   
    67    35    65 1   
    68    35    66 1   
    69    35    67 1   
    70    36    37 1   
    71    37    38 1   
    72    38    68 1   
    73    38    69 1   
    74    38    70 1   
@<TRIPOS>SUBSTRUCTURE
     1 1KT         1 TEMP              0 ****  ****    0 ROOT
