@<TRIPOS>MOLECULE
1KU
   65    69     1     0     0
SMALL
bcc


@<TRIPOS>ATOM
      1 C            0.0000     0.0000     0.0000 c          1 1KU       0.597500
      2 N            2.0000     1.2040    -0.6820 n3         1 1KU      -0.527500
      3 O           -0.5710    -1.0700    -0.0100 o          1 1KU      -0.695500
      4 CA           1.5020     0.0000     0.0000 c3         1 1KU       0.144500
      5 CB           2.0030     0.0000     1.4450 c3         1 1KU      -0.030400
      6 CAA         -1.4380     6.3370     4.9810 c3         1 1KU       0.241700
      7 CAC         -2.1960     4.1220     5.4030 ca         1 1KU       0.158100
      8 CAD         -2.0090     3.8620     4.0550 ca         1 1KU      -0.224000
      9 CAE         -2.6630     3.1180     6.2450 ca         1 1KU       0.081100
     10 OAF         -2.8420     3.3700     7.5700 os         1 1KU      -0.293900
     11 CAG         -3.3240     2.2920     8.3760 c3         1 1KU       0.241700
     12 CAH         -2.9440     1.8620     5.7340 ca         1 1KU      -0.131000
     13 CAI         -2.7620     1.6050     4.3880 ca         1 1KU      -0.209000
     14 CAJ         -2.2920     2.6030     3.5470 ca         1 1KU       0.152100
     15 OAK         -2.1150     2.3490     2.2230 os         1 1KU      -0.318900
     16 CAL         -2.4320     1.0310     1.7670 c3         1 1KU       0.182400
     17 CAM         -2.1700     0.9370     0.2630 c3         1 1KU       0.023000
     18 NAN         -0.7380     1.1010     0.0050 n          1 1KU      -0.115800
     19 CAQ         -0.2630     2.4580    -0.2210 c3         1 1KU       0.025000
     20 CAR          0.8570     2.8230     0.7590 c3         1 1KU      -0.071400
     21 CAS          2.1960     2.4070     0.1410 c3         1 1KU       0.207500
     22 CAT          3.2420     2.1600     1.2180 c3         1 1KU      -0.037400
     23 CAU          3.3630     0.6850     1.5320 c3         1 1KU      -0.014400
     24 SAY          2.3270     1.1960    -2.3060 sy         1 1KU       1.057200
     25 OAZ          3.2650     2.2410    -2.5300 o          1 1KU      -0.577800
     26 OBA          2.5720    -0.1580    -2.6590 o          1 1KU      -0.577800
     27 CBB          0.8480     1.6680    -3.1380 ca         1 1KU      -0.160500
     28 CBC          0.6010     2.9950    -3.4010 ca         1 1KU       0.066000
     29 CBD         -0.5690     3.3690    -4.0590 ca         1 1KU      -0.069100
     30 SBE         -1.1900     4.9430    -4.5470 ss         1 1KU      -0.186100
     31 CBF         -2.5830     4.2150    -5.2140 cc         1 1KU       0.438100
     32 NBG         -2.5590     2.9430    -5.0750 nd         1 1KU      -0.456100
     33 CBH         -1.4960     2.3970    -4.4560 ca         1 1KU       0.112400
     34 CBI         -1.2150     1.0450    -4.1720 ca         1 1KU      -0.067000
     35 CBJ         -0.0640     0.6990    -3.5330 ca         1 1KU      -0.008000
     36 HA           1.8650    -0.8840    -0.5110 h1         1 1KU       0.084700
     37 HB           2.0950    -1.0220     1.7910 hc         1 1KU       0.027700
     38 HBA          1.2940     0.5320     2.0690 hc         1 1KU       0.027700
     39 HAA         -1.2950     7.2780     5.4980 h1         1 1KU      -0.002967
     40 HAAA        -0.4940     6.0070     4.5630 h1         1 1KU      -0.002967
     41 HAAB        -2.1590     6.4690     4.1840 h1         1 1KU      -0.002967
     42 HAD         -1.6420     4.6410     3.3980 ha         1 1KU       0.132000
     43 HAG         -4.2900     1.9700     8.0080 h1         1 1KU      -0.003633
     44 HAGA        -3.4210     2.6250     9.4030 h1         1 1KU      -0.003633
     45 HAGB        -2.6260     1.4650     8.3290 h1         1 1KU      -0.003633
     46 HAH         -3.3090     1.0800     6.3890 ha         1 1KU       0.121000
     47 HAI         -2.9830     0.6220     3.9900 ha         1 1KU       0.123000
     48 HAL         -3.4760     0.8220     1.9660 h1         1 1KU       0.014700
     49 HALA        -1.8140     0.3100     2.2880 h1         1 1KU       0.014700
     50 HAM         -2.4940    -0.0320    -0.1000 h1         1 1KU       0.048700
     51 HAMA        -2.7210     1.7160    -0.2500 h1         1 1KU       0.048700
     52 HAQ          0.1140     2.5370    -1.2340 h1         1 1KU       0.035700
     53 HAQA        -1.0880     3.1480    -0.0890 h1         1 1KU       0.035700
     54 HAR          0.7080     2.2950     1.6940 hc         1 1KU       0.038200
     55 HARA         0.8530     3.8920     0.9330 hc         1 1KU       0.038200
     56 HAS          2.5440     3.2090    -0.4990 h1         1 1KU       0.048700
     57 HAT          2.9570     2.6920     2.1170 hc         1 1KU       0.023200
     58 HATA         4.2010     2.5270     0.8710 hc         1 1KU       0.023200
     59 HAU          3.7570     0.5670     2.5340 hc         1 1KU       0.020200
     60 HAUA         4.0380     0.2250     0.8210 hc         1 1KU       0.020200
     61 HBC          1.3440     3.7430    -3.1540 ha         1 1KU       0.132000
     62 HBF         -3.3860     4.7610    -5.6940 h5         1 1KU       0.032800
     63 HBI         -1.9160     0.2760    -4.4730 ha         1 1KU       0.123000
     64 HBJ          0.1460    -0.3460    -3.3370 ha         1 1KU       0.137000
     65 OAB         -1.9190     5.3560     5.9020 os         1 1KU      -0.290900
@<TRIPOS>BOND
     1     1     3 2   
     2     1     4 1   
     3     1    18 1   
     4     2     4 1   
     5     2    21 1   
     6     2    24 1   
     7     4     5 1   
     8     4    36 1   
     9     5    23 1   
    10     5    37 1   
    11     5    38 1   
    12     6    39 1   
    13     6    40 1   
    14     6    41 1   
    15     6    65 1   
    16     7     8 ar  
    17     7     9 ar  
    18     7    65 1   
    19     8    14 ar  
    20     8    42 1   
    21     9    10 1   
    22     9    12 ar  
    23    10    11 1   
    24    11    43 1   
    25    11    44 1   
    26    11    45 1   
    27    12    13 ar  
    28    12    46 1   
    29    13    14 ar  
    30    13    47 1   
    31    14    15 1   
    32    15    16 1   
    33    16    17 1   
    34    16    48 1   
    35    16    49 1   
    36    17    18 1   
    37    17    50 1   
    38    17    51 1   
    39    18    19 1   
    40    19    20 1   
    41    19    52 1   
    42    19    53 1   
    43    20    21 1   
    44    20    54 1   
    45    20    55 1   
    46    21    22 1   
    47    21    56 1   
    48    22    23 1   
    49    22    57 1   
    50    22    58 1   
    51    23    59 1   
    52    23    60 1   
    53    24    25 2   
    54    24    26 2   
    55    24    27 1   
    56    27    28 ar  
    57    27    35 ar  
    58    28    29 ar  
    59    28    61 1   
    60    29    30 1   
    61    29    33 ar  
    62    30    31 1   
    63    31    32 2   
    64    31    62 1   
    65    32    33 1   
    66    33    34 ar  
    67    34    35 ar  
    68    34    63 1   
    69    35    64 1   
@<TRIPOS>SUBSTRUCTURE
     1 1KU         1 TEMP              0 ****  ****    0 ROOT
