@<TRIPOS>MOLECULE
1KU
   65    69     1     0     0
SMALL
bcc


@<TRIPOS>ATOM
      1 C            0.1810     0.1640     0.4200 c          1 1KU       0.688500
      2 N            2.4290     1.0730    -0.3580 n3         1 1KU      -0.800500
      3 O           -0.4070    -0.7930     0.9690 o          1 1KU      -0.647500
      4 CA           1.7250     0.1310     0.4700 c3         1 1KU       0.175500
      5 CB           2.1450     0.2120     1.9520 c3         1 1KU      -0.085400
      6 CAA         -2.0640    -5.1360    -3.7090 c3         1 1KU       0.108700
      7 CAC         -3.4210    -3.8330    -2.2580 ca         1 1KU       0.138100
      8 CAD         -2.6890    -2.6820    -2.5280 ca         1 1KU      -0.207000
      9 CAE         -4.5010    -3.7930    -1.3310 ca         1 1KU       0.071100
     10 OAF         -5.1810    -4.9850    -1.1640 os         1 1KU      -0.304900
     11 CAG         -6.0960    -5.0220    -0.0750 c3         1 1KU       0.111700
     12 CAH         -4.8130    -2.5990    -0.6880 ca         1 1KU      -0.142000
     13 CAI         -4.0760    -1.4400    -0.9490 ca         1 1KU      -0.203000
     14 CAJ         -3.0270    -1.4840    -1.8640 ca         1 1KU       0.133100
     15 OAK         -2.2290    -0.4090    -2.2220 os         1 1KU      -0.328900
     16 CAL         -2.5520     0.8620    -1.6680 c3         1 1KU       0.106400
     17 CAM         -1.9960     1.0410    -0.2480 c3         1 1KU       0.052000
     18 NAN         -0.5570     1.1810    -0.1620 n          1 1KU      -0.459800
     19 CAQ          0.0010     2.3260    -0.8400 c3         1 1KU       0.108000
     20 CAR          1.0290     3.1290    -0.0510 c3         1 1KU      -0.107400
     21 CAS          2.3990     2.4470     0.1050 c3         1 1KU       0.240500
     22 CAT          2.8740     2.5720     1.5650 c3         1 1KU      -0.089400
     23 CAU          2.1220     1.6290     2.4790 c3         1 1KU      -0.079400
     24 SAY          3.4140     0.6080    -1.5810 sy         1 1KU       1.505200
     25 OAZ          3.5340    -0.7970    -1.5810 o          1 1KU      -0.647300
     26 OBA          4.6170     1.3470    -1.5300 o          1 1KU      -0.647300
     27 CBB          2.5850     1.0860    -2.9750 ca         1 1KU      -0.372500
     28 CBC          2.9880     2.2160    -3.6810 ca         1 1KU       0.034000
     29 CBD          2.3380     2.5760    -4.8580 ca         1 1KU      -0.131100
     30 SBE          2.6090     3.8720    -5.9150 ss         1 1KU      -0.004100
     31 CBF          1.3170     3.3410    -6.9220 cc         1 1KU       0.364100
     32 NBG          0.6770     2.2530    -6.5410 nd         1 1KU      -0.524100
     33 CBH          1.2440     1.7780    -5.3470 ca         1 1KU       0.132400
     34 CBI          0.8450     0.6330    -4.6310 ca         1 1KU      -0.097000
     35 CBJ          1.5180     0.3060    -3.4670 ca         1 1KU      -0.026000
     36 HA           1.9820    -0.9180     0.1040 h1         1 1KU       0.113700
     37 HB           1.4510    -0.4370     2.5490 hc         1 1KU       0.068200
     38 HBA          3.1790    -0.2100     2.0500 hc         1 1KU       0.068200
     39 HAA         -1.1260    -4.8720    -3.1630 h1         1 1KU       0.046033
     40 HAAA        -2.2020    -4.4700    -4.5960 h1         1 1KU       0.046033
     41 HAAB        -2.0520    -6.2110    -4.0220 h1         1 1KU       0.046033
     42 HAD         -1.8510    -2.6810    -3.2370 ha         1 1KU       0.153000
     43 HAG         -6.4340    -6.0900    -0.0580 h1         1 1KU       0.042033
     44 HAGA        -6.9610    -4.3410    -0.2670 h1         1 1KU       0.042033
     45 HAGB        -5.5920    -4.7520     0.8840 h1         1 1KU       0.042033
     46 HAH         -5.6390    -2.5550     0.0360 ha         1 1KU       0.140000
     47 HAI         -4.3330    -0.5160    -0.4140 ha         1 1KU       0.135000
     48 HAL         -3.6600     1.0310    -1.6570 h1         1 1KU       0.060200
     49 HALA        -2.0760     1.5770    -2.3950 h1         1 1KU       0.060200
     50 HAM         -2.4680     1.9690     0.1850 h1         1 1KU       0.074200
     51 HAMA        -2.3170     0.1540     0.3740 h1         1 1KU       0.074200
     52 HAQ         -0.8500     3.0310    -1.0810 h1         1 1KU       0.045700
     53 HAQA         0.4460     2.0030    -1.8280 h1         1 1KU       0.045700
     54 HAR          0.6120     3.3800     0.9600 hc         1 1KU       0.056700
     55 HARA         1.1830     4.0980    -0.5950 hc         1 1KU       0.056700
     56 HAS          3.1410     3.0200    -0.5360 h1         1 1KU       0.060700
     57 HAT          2.7300     3.6320     1.8970 hc         1 1KU       0.054700
     58 HATA         3.9720     2.3470     1.6120 hc         1 1KU       0.054700
     59 HAU          1.0570     1.9700     2.5830 hc         1 1KU       0.048200
     60 HAUA         2.5810     1.6540     3.5020 hc         1 1KU       0.048200
     61 HBC          3.8400     2.8170    -3.3100 ha         1 1KU       0.166000
     62 HBF          1.0390     3.8770    -7.8360 h5         1 1KU       0.067800
     63 HBI          0.0130     0.0130    -4.9990 ha         1 1KU       0.166000
     64 HBJ          1.2220    -0.6010    -2.9100 ha         1 1KU       0.159000
     65 OAB         -3.1920    -5.0600    -2.8440 os         1 1KU      -0.301900
@<TRIPOS>BOND
     1     1     3 2   
     2     1     4 1   
     3     1    18 1   
     4     2     4 1   
     5     2    21 1   
     6     2    24 1   
     7     4     5 1   
     8     4    36 1   
     9     5    23 1   
    10     5    37 1   
    11     5    38 1   
    12     6    39 1   
    13     6    40 1   
    14     6    41 1   
    15     6    65 1   
    16     7     8 ar  
    17     7     9 ar  
    18     7    65 1   
    19     8    14 ar  
    20     8    42 1   
    21     9    10 1   
    22     9    12 ar  
    23    10    11 1   
    24    11    43 1   
    25    11    44 1   
    26    11    45 1   
    27    12    13 ar  
    28    12    46 1   
    29    13    14 ar  
    30    13    47 1   
    31    14    15 1   
    32    15    16 1   
    33    16    17 1   
    34    16    48 1   
    35    16    49 1   
    36    17    18 1   
    37    17    50 1   
    38    17    51 1   
    39    18    19 1   
    40    19    20 1   
    41    19    52 1   
    42    19    53 1   
    43    20    21 1   
    44    20    54 1   
    45    20    55 1   
    46    21    22 1   
    47    21    56 1   
    48    22    23 1   
    49    22    57 1   
    50    22    58 1   
    51    23    59 1   
    52    23    60 1   
    53    24    25 2   
    54    24    26 2   
    55    24    27 1   
    56    27    28 ar  
    57    27    35 ar  
    58    28    29 ar  
    59    28    61 1   
    60    29    30 1   
    61    29    33 ar  
    62    30    31 1   
    63    31    32 2   
    64    31    62 1   
    65    32    33 1   
    66    33    34 ar  
    67    34    35 ar  
    68    34    63 1   
    69    35    64 1   
@<TRIPOS>SUBSTRUCTURE
     1 1KU         1 TEMP              0 ****  ****    0 ROOT
