@<TRIPOS>MOLECULE
molecule
   63    66     1     0     0
SMALL
bcc


@<TRIPOS>ATOM
      1 CAB          0.0000     0.0000     0.0000 c3         1 1KV       0.127700
      2 OAS          1.4290     0.0000     0.0000 os         1 1KV      -0.419600
      3 CBB          2.0110     0.0000     1.3050 c3         1 1KV       0.130100
      4 CAH          2.2180    -1.4420     1.7710 c3         1 1KV      -0.100400
      5 CAG          2.8410    -1.4420     3.1690 c3         1 1KV      -0.107400
      6 CAZ          4.1900    -0.7210     3.1260 c3         1 1KV       0.144100
      7 OAR          4.7720    -0.7210     4.4310 os         1 1KV      -0.423600
      8 CAA          5.6030    -1.8510     4.6960 c3         1 1KV       0.128700
      9 CAO          3.9820     0.7210     2.6590 c3         1 1KV      -0.095400
     10 CBA          3.3590     0.7210     1.2620 c3         1 1KV       0.125700
     11 NAQ          3.1610     2.1030     0.8160 ns         1 1KV      -0.577900
     12 C            4.1710     2.7720     0.2250 c          1 1KV       0.660100
     13 O            5.2440     2.2300     0.0630 o          1 1KV      -0.594100
     14 CA           3.9660     4.1930    -0.2340 c3         1 1KV       0.089800
     15 N            5.2060     4.6940    -0.8410 n3         1 1KV      -0.709600
     16 CAK          5.1250     6.1410    -1.0840 c3         1 1KV       0.161300
     17 CAM          6.4610     6.6370    -1.6410 c3         1 1KV       0.163300
     18 CAJ          5.5160     3.9710    -2.0820 c3         1 1KV       0.161300
     19 CAL          6.8520     4.4670    -2.6390 c3         1 1KV       0.163300
     20 NBD          6.7710     5.9130    -2.8820 n3         1 1KV      -0.732600
     21 CAP          8.0110     6.4150    -3.4890 c3         1 1KV       0.213100
     22 CAW          8.1680     5.8300    -4.8690 ca         1 1KV      -0.077300
     23 CAF          8.8360     4.6320    -5.0390 ca         1 1KV      -0.111000
     24 CAY          8.9810     4.0930    -6.3070 ca         1 1KV       0.048100
     25 OAU          9.5840     2.9480    -6.7400 os         1 1KV      -0.327900
     26 CAI          9.0660     2.7170    -8.0630 c3         1 1KV       0.331200
     27 OAT          8.7250     4.0340    -8.5320 os         1 1KV      -0.328900
     28 CAX          8.4520     4.7620    -7.4080 ca         1 1KV       0.048100
     29 CAE          7.7850     5.9620    -7.2310 ca         1 1KV      -0.115000
     30 CAD          7.6380     6.4910    -5.9620 ca         1 1KV      -0.106000
     31 H1          -0.3610    -0.9940     0.2340 h1         1 1KV       0.030700
     32 H2          -0.3610     0.7000     0.7440 h1         1 1KV       0.030700
     33 H3          -0.3610     0.2940    -0.9780 h1         1 1KV       0.030700
     34 H4           1.3530     0.5100     1.9980 h1         1 1KV       0.037700
     35 H5           2.8810    -1.9510     1.0820 hc         1 1KV       0.054700
     36 H6           1.2620    -1.9510     1.8030 hc         1 1KV       0.054700
     37 H7           2.9890    -2.4640     3.4960 hc         1 1KV       0.051200
     38 H8           2.1800    -0.9290     3.8570 hc         1 1KV       0.051200
     39 H9           4.8480    -1.2310     2.4330 h1         1 1KV       0.043700
     40 H10          6.4130    -1.8810     3.9770 h1         1 1KV       0.030367
     41 H11          5.0170    -2.7580     4.6170 h1         1 1KV       0.030367
     42 H12          6.0120    -1.7710     5.6970 h1         1 1KV       0.030367
     43 H13          4.9380     1.2300     2.6280 hc         1 1KV       0.065200
     44 H14          3.3190     1.2300     3.3490 hc         1 1KV       0.065200
     45 H15          4.0200     0.2070     0.5740 h1         1 1KV       0.092700
     46 H16          2.2890     2.5640     0.9890 hn         1 1KV       0.311500
     47 H17          3.7040     4.8120     0.6150 h1         1 1KV       0.050200
     48 H18          3.1670     4.2250    -0.9650 h1         1 1KV       0.050200
     49 H20          4.9110     6.6510    -0.1530 h1         1 1KV       0.046450
     50 H21          4.3390     6.3420    -1.8020 h1         1 1KV       0.046450
     51 H22          6.3920     7.6980    -1.8510 h1         1 1KV       0.044700
     52 H23          7.2440     6.4570    -0.9140 h1         1 1KV       0.044700
     53 H24          4.7330     4.1510    -2.8090 h1         1 1KV       0.046450
     54 H25          5.5850     2.9100    -1.8730 h1         1 1KV       0.046450
     55 H26          7.6390     4.2660    -1.9220 h1         1 1KV       0.044700
     56 H27          7.0660     3.9560    -3.5710 h1         1 1KV       0.044700
     57 H29          8.8560     6.1260    -2.8760 h1         1 1KV       0.041700
     58 H30          7.9680     7.4960    -3.5580 h1         1 1KV       0.041700
     59 H31          9.2870     4.1390    -4.1870 ha         1 1KV       0.145000
     60 H32          9.8390     2.2920    -8.6920 h2         1 1KV       0.070200
     61 H33          8.1740     2.1040    -8.0070 h2         1 1KV       0.070200
     62 H34          7.3690     6.4820    -8.0860 ha         1 1KV       0.143000
     63 H35          7.1090     7.4260    -5.8240 ha         1 1KV       0.143000
@<TRIPOS>BOND
     1    21    22 1   
     2    21    20 1   
     3    23    22 ar  
     4    23    24 ar  
     5    22    30 ar  
     6    25    24 1   
     7    25    26 1   
     8    24    28 ar  
     9    20    17 1   
    10    20    19 1   
    11    30    29 ar  
    12    26    27 1   
    13    28    29 ar  
    14    28    27 1   
    15    17    16 1   
    16    19    18 1   
    17    16    15 1   
    18    18    15 1   
    19    15    14 1   
    20    14    12 1   
    21     1     2 1   
    22    12    11 1   
    23    12    13 2   
    24     2     3 1   
    25    11    10 1   
    26     3    10 1   
    27     3     4 1   
    28    10     9 1   
    29     4     5 1   
    30     9     6 1   
    31     5     6 1   
    32     6     7 1   
    33     7     8 1   
    34     1    31 1   
    35     1    32 1   
    36     1    33 1   
    37     3    34 1   
    38     4    35 1   
    39     4    36 1   
    40     5    37 1   
    41     5    38 1   
    42     6    39 1   
    43     8    40 1   
    44     8    41 1   
    45     8    42 1   
    46     9    43 1   
    47     9    44 1   
    48    10    45 1   
    49    11    46 1   
    50    14    47 1   
    51    14    48 1   
    52    16    49 1   
    53    16    50 1   
    54    17    51 1   
    55    17    52 1   
    56    18    53 1   
    57    18    54 1   
    58    19    55 1   
    59    19    56 1   
    60    21    57 1   
    61    21    58 1   
    62    23    59 1   
    63    26    60 1   
    64    26    61 1   
    65    29    62 1   
    66    30    63 1   
@<TRIPOS>SUBSTRUCTURE
     1 1KV         1 TEMP              0 ****  ****    0 ROOT
