@<TRIPOS>MOLECULE
1KV
   63    66     1     0     0
SMALL
bcc


@<TRIPOS>ATOM
      1 CAB          0.0000     0.0000     0.0000 c3         1 1KV       0.249700
      2 OAS          1.4290     0.0000     0.0000 os         1 1KV      -0.407600
      3 CBB          2.0110     0.0000     1.3050 c3         1 1KV       0.163100
      4 CAH          2.2180    -1.4420     1.7710 c3         1 1KV      -0.045400
      5 CAG          2.8410    -1.4420     3.1690 c3         1 1KV      -0.056400
      6 CAZ          4.1900    -0.7210     3.1260 c3         1 1KV       0.181100
      7 OAR          4.7720    -0.7210     4.4310 os         1 1KV      -0.408600
      8 CAA          5.6030    -1.8510     4.6960 c3         1 1KV       0.250700
      9 CAO          3.9820     0.7210     2.6590 c3         1 1KV      -0.050400
     10 CBA          3.3590     0.7210     1.2620 c3         1 1KV       0.019700
     11 NAQ          3.1610     2.1030     0.8160 ns         1 1KV      -0.183900
     12 C            4.1710     2.7720     0.2250 c          1 1KV       0.571100
     13 O            5.2440     2.2300     0.0630 o          1 1KV      -0.632100
     14 CA           3.9660     4.1930    -0.2340 c3         1 1KV       0.086800
     15 N            5.2060     4.6940    -0.8410 n3         1 1KV      -0.511600
     16 CAK          5.1250     6.1410    -1.0840 c3         1 1KV       0.140800
     17 CAM          6.4610     6.6370    -1.6410 c3         1 1KV       0.149300
     18 CAJ          5.5160     3.9710    -2.0820 c3         1 1KV       0.140800
     19 CAL          6.8520     4.4670    -2.6390 c3         1 1KV       0.149300
     20 NBD          6.7710     5.9130    -2.8820 n3         1 1KV      -0.544600
     21 CAP          8.0110     6.4150    -3.4890 c3         1 1KV       0.217100
     22 CAW          8.1680     5.8300    -4.8690 ca         1 1KV      -0.089300
     23 CAF          8.8360     4.6320    -5.0390 ca         1 1KV      -0.087000
     24 CAY          8.9810     4.0930    -6.3070 ca         1 1KV       0.056100
     25 OAU          9.5840     2.9480    -6.7400 os         1 1KV      -0.314900
     26 CAI          9.0660     2.7170    -8.0630 c3         1 1KV       0.431200
     27 OAT          8.7250     4.0340    -8.5320 os         1 1KV      -0.316900
     28 CAX          8.4520     4.7620    -7.4080 ca         1 1KV       0.054100
     29 CAE          7.7850     5.9620    -7.2310 ca         1 1KV      -0.089000
     30 CAD          7.6380     6.4910    -5.9620 ca         1 1KV      -0.081000
     31 H1          -0.3610    -0.9940     0.2340 h1         1 1KV      -0.011300
     32 H2          -0.3610     0.7000     0.7440 h1         1 1KV      -0.011300
     33 H3          -0.3610     0.2940    -0.9780 h1         1 1KV      -0.011300
     34 H4           1.3530     0.5100     1.9980 h1         1 1KV       0.012700
     35 H5           2.8810    -1.9510     1.0820 hc         1 1KV       0.025700
     36 H6           1.2620    -1.9510     1.8030 hc         1 1KV       0.025700
     37 H7           2.9890    -2.4640     3.4960 hc         1 1KV       0.023700
     38 H8           2.1800    -0.9290     3.8570 hc         1 1KV       0.023700
     39 H9           4.8480    -1.2310     2.4330 h1         1 1KV       0.016700
     40 H10          6.4130    -1.8810     3.9770 h1         1 1KV      -0.011967
     41 H11          5.0170    -2.7580     4.6170 h1         1 1KV      -0.011967
     42 H12          6.0120    -1.7710     5.6970 h1         1 1KV      -0.011967
     43 H13          4.9380     1.2300     2.6280 hc         1 1KV       0.035200
     44 H14          3.3190     1.2300     3.3490 hc         1 1KV       0.035200
     45 H15          4.0200     0.2070     0.5740 h1         1 1KV       0.068700
     46 H16          2.2890     2.5640     0.9890 hn         1 1KV       0.170500
     47 H17          3.7040     4.8120     0.6150 h1         1 1KV       0.020200
     48 H18          3.1670     4.2250    -0.9650 h1         1 1KV       0.020200
     49 H20          4.9110     6.6510    -0.1530 h1         1 1KV       0.020700
     50 H21          4.3390     6.3420    -1.8020 h1         1 1KV       0.020700
     51 H22          6.3920     7.6980    -1.8510 h1         1 1KV       0.018450
     52 H23          7.2440     6.4570    -0.9140 h1         1 1KV       0.018450
     53 H24          4.7330     4.1510    -2.8090 h1         1 1KV       0.020700
     54 H25          5.5850     2.9100    -1.8730 h1         1 1KV       0.020700
     55 H26          7.6390     4.2660    -1.9220 h1         1 1KV       0.018450
     56 H27          7.0660     3.9560    -3.5710 h1         1 1KV       0.018450
     57 H29          8.8560     6.1260    -2.8760 h1         1 1KV       0.012700
     58 H30          7.9680     7.4960    -3.5580 h1         1 1KV       0.012700
     59 H31          9.2870     4.1390    -4.1870 ha         1 1KV       0.118000
     60 H32          9.8390     2.2920    -8.6920 h2         1 1KV       0.013700
     61 H33          8.1740     2.1040    -8.0070 h2         1 1KV       0.013700
     62 H34          7.3690     6.4820    -8.0860 ha         1 1KV       0.111000
     63 H35          7.1090     7.4260    -5.8240 ha         1 1KV       0.112000
@<TRIPOS>BOND
     1     1     2 1   
     2     1    31 1   
     3     1    32 1   
     4     1    33 1   
     5     2     3 1   
     6     3     4 1   
     7     3    10 1   
     8     3    34 1   
     9     4     5 1   
    10     4    35 1   
    11     4    36 1   
    12     5     6 1   
    13     5    37 1   
    14     5    38 1   
    15     6     7 1   
    16     6     9 1   
    17     6    39 1   
    18     7     8 1   
    19     8    40 1   
    20     8    41 1   
    21     8    42 1   
    22     9    10 1   
    23     9    43 1   
    24     9    44 1   
    25    10    11 1   
    26    10    45 1   
    27    11    12 1   
    28    11    46 1   
    29    12    13 2   
    30    12    14 1   
    31    14    15 1   
    32    14    47 1   
    33    14    48 1   
    34    15    16 1   
    35    15    18 1   
    36    16    17 1   
    37    16    49 1   
    38    16    50 1   
    39    17    20 1   
    40    17    51 1   
    41    17    52 1   
    42    18    19 1   
    43    18    53 1   
    44    18    54 1   
    45    19    20 1   
    46    19    55 1   
    47    19    56 1   
    48    20    21 1   
    49    21    22 1   
    50    21    57 1   
    51    21    58 1   
    52    22    23 ar  
    53    22    30 ar  
    54    23    24 ar  
    55    23    59 1   
    56    24    25 1   
    57    24    28 ar  
    58    25    26 1   
    59    26    27 1   
    60    26    60 1   
    61    26    61 1   
    62    27    28 1   
    63    28    29 ar  
    64    29    30 ar  
    65    29    62 1   
    66    30    63 1   
@<TRIPOS>SUBSTRUCTURE
     1 1KV         1 TEMP              0 ****  ****    0 ROOT
