@<TRIPOS>MOLECULE
1KV
   64    67     1     0     0
SMALL
bcc


@<TRIPOS>ATOM
      1 CAB          2.9060    -0.6980    -1.9850 c3         1 1KV       0.117700
      2 OAS          3.1140     0.3440    -1.0390 os         1 1KV      -0.465600
      3 CBB          3.0760    -0.0820     0.3230 c3         1 1KV       0.128100
      4 CAH          4.1960    -1.0570     0.6650 c3         1 1KV      -0.105400
      5 CAG          4.1940    -1.3920     2.1380 c3         1 1KV      -0.092400
      6 CAZ          4.3150    -0.1320     2.9900 c3         1 1KV       0.151100
      7 OAR          4.1430    -0.5400     4.3430 os         1 1KV      -0.407600
      8 CAA          4.8830     0.2340     5.2770 c3         1 1KV       0.108700
      9 CAO          3.2110     0.8740     2.6460 c3         1 1KV      -0.134400
     10 CBA          3.2680     1.2120     1.1590 c3         1 1KV       0.128500
     11 NAQ          2.2450     2.2460     0.7730 ny         1 1KV      -0.659800
     12 C            2.6090     3.6640     1.1240 c          1 1KV       0.528100
     13 O            3.6590     3.8570     1.7170 o          1 1KV      -0.426100
     14 CA           1.6400     4.7690     0.6940 c3         1 1KV       0.111800
     15 N            0.4050     4.2750     0.1450 n3         1 1KV      -0.790600
     16 CAK          0.2590     4.5140    -1.2870 c3         1 1KV       0.168300
     17 CAM         -1.0460     3.9240    -1.8550 c3         1 1KV       0.165300
     18 CAJ         -0.7770     4.6570     0.9100 c3         1 1KV       0.168300
     19 CAL         -2.0770     4.0710     0.3250 c3         1 1KV       0.165300
     20 NBD         -2.2200     4.3270    -1.0990 n3         1 1KV      -0.724600
     21 CAP         -3.4670     3.8240    -1.6530 c3         1 1KV       0.214100
     22 CAW         -3.6770     2.3360    -1.6230 ca         1 1KV      -0.137300
     23 CAF         -3.1820     1.5570    -2.6930 ca         1 1KV      -0.112000
     24 CAY         -3.4260     0.2020    -2.6300 ca         1 1KV       0.054100
     25 OAU         -3.0570    -0.7900    -3.5310 os         1 1KV      -0.334900
     26 CAI         -3.6050    -2.0340    -3.0300 c3         1 1KV       0.320200
     27 OAT         -4.2390    -1.7550    -1.7580 os         1 1KV      -0.326900
     28 CAX         -4.1410    -0.3850    -1.5510 ca         1 1KV       0.066100
     29 CAE         -4.6300     0.3700    -0.5060 ca         1 1KV      -0.113000
     30 CAD         -4.3760     1.7530    -0.5660 ca         1 1KV      -0.120000
     31 H1           3.7920    -1.3780    -2.0090 h1         1 1KV       0.055367
     32 H2           1.9780    -1.2720    -1.7460 h1         1 1KV       0.055367
     33 H3           2.8010    -0.1580    -2.9600 h1         1 1KV       0.055367
     34 H4           2.0750    -0.5490     0.5410 h1         1 1KV       0.060700
     35 H5           5.1810    -0.6170     0.3600 hc         1 1KV       0.074200
     36 H6           4.0490    -1.9980     0.0710 hc         1 1KV       0.074200
     37 H7           3.2540    -1.9370     2.4180 hc         1 1KV       0.078700
     38 H8           5.0540    -2.0730     2.3740 hc         1 1KV       0.078700
     39 H9           5.3230     0.3460     2.8370 h1         1 1KV       0.057700
     40 H10          4.6310    -0.2250     6.2670 h1         1 1KV       0.046033
     41 H11          4.5610     1.3030     5.2450 h1         1 1KV       0.046033
     42 H12          5.9790     0.1540     5.0750 h1         1 1KV       0.046033
     43 H13          3.3610     1.8000     3.2610 hc         1 1KV       0.075200
     44 H14          2.2200     0.4270     2.9190 hc         1 1KV       0.075200
     45 H15          4.2810     1.6520     0.9050 hx         1 1KV       0.125700
     46 H16          2.1100     2.1940    -0.2500 hn         1 1KV       0.472800
     47 H17          1.4800     5.3940     1.6250 h1         1 1KV       0.114200
     48 H18          2.2280     5.3980    -0.0420 h1         1 1KV       0.114200
     49 H20          0.2920     5.6170    -1.5220 h1         1 1KV       0.050700
     50 H21          1.1230     4.0170    -1.8130 h1         1 1KV       0.050700
     51 H22         -0.9460     2.8000    -1.9120 h1         1 1KV       0.051700
     52 H23         -1.1620     4.3130    -2.9070 h1         1 1KV       0.051700
     53 H24         -0.8790     5.7800     0.9670 h1         1 1KV       0.050700
     54 H25         -0.6590     4.2620     1.9580 h1         1 1KV       0.050700
     55 H26         -2.9380     4.5700     0.8530 h1         1 1KV       0.051700
     56 H27         -2.1210     2.9670     0.5610 h1         1 1KV       0.051700
     57 H29         -4.3030     4.3260    -1.0840 h1         1 1KV       0.073700
     58 H30         -3.5200     4.1800    -2.7230 h1         1 1KV       0.073700
     59 H31         -2.6500     2.0150    -3.5370 ha         1 1KV       0.154000
     60 H32         -2.7620    -2.7470    -2.8560 h2         1 1KV       0.080200
     61 H33         -4.3810    -2.4000    -3.7460 h2         1 1KV       0.080200
     62 H34         -5.1940    -0.0760     0.3230 ha         1 1KV       0.164000
     63 H35         -4.7590     2.3910     0.2460 ha         1 1KV       0.140000
     64 HAQ2         1.3490     2.0240     1.2210 hn         1 1KV       0.472800
@<TRIPOS>BOND
     1     1     2 1   
     2     1    31 1   
     3     1    32 1   
     4     1    33 1   
     5     2     3 1   
     6     3     4 1   
     7     3    10 1   
     8     3    34 1   
     9     4     5 1   
    10     4    35 1   
    11     4    36 1   
    12     5     6 1   
    13     5    37 1   
    14     5    38 1   
    15     6     7 1   
    16     6     9 1   
    17     6    39 1   
    18     7     8 1   
    19     8    40 1   
    20     8    41 1   
    21     8    42 1   
    22     9    10 1   
    23     9    43 1   
    24     9    44 1   
    25    10    11 1   
    26    10    45 1   
    27    11    12 1   
    28    11    46 1   
    29    11    64 1   
    30    12    13 2   
    31    12    14 1   
    32    14    15 1   
    33    14    47 1   
    34    14    48 1   
    35    15    16 1   
    36    15    18 1   
    37    16    17 1   
    38    16    49 1   
    39    16    50 1   
    40    17    20 1   
    41    17    51 1   
    42    17    52 1   
    43    18    19 1   
    44    18    53 1   
    45    18    54 1   
    46    19    20 1   
    47    19    55 1   
    48    19    56 1   
    49    20    21 1   
    50    21    22 1   
    51    21    57 1   
    52    21    58 1   
    53    22    23 ar  
    54    22    30 ar  
    55    23    24 ar  
    56    23    59 1   
    57    24    25 1   
    58    24    28 ar  
    59    25    26 1   
    60    26    27 1   
    61    26    60 1   
    62    26    61 1   
    63    27    28 1   
    64    28    29 ar  
    65    29    30 ar  
    66    29    62 1   
    67    30    63 1   
@<TRIPOS>SUBSTRUCTURE
     1 1KV         1 TEMP              0 ****  ****    0 ROOT
