@<TRIPOS>MOLECULE
1KX
   39    42     1     0     0
SMALL
bcc


@<TRIPOS>ATOM
      1 C            0.0430     0.1560     0.1410 cx         1 1KX      -0.151900
      2 N            2.2670    -1.0910    -0.2830 nu         1 1KX      -0.810900
      3 O            4.3480    -7.6680    -3.2950 oh         1 1KX      -0.608800
      4 C01          3.9520    -2.4840    -3.3110 ca         1 1KX       0.487800
      5 N01          4.1960    -1.3900    -4.0810 nb         1 1KX      -0.788000
      6 C02          3.2600    -2.4580    -2.0300 ca         1 1KX      -0.256200
      7 N02          3.1720    -3.7560    -1.5010 nc         1 1KX      -0.550100
      8 C03          3.7770    -4.5410    -2.4020 cd         1 1KX       0.408700
      9 N03          4.2670    -3.8340    -3.5320 na         1 1KX      -0.265000
     10 C04          5.0000    -4.3850    -4.6390 c3         1 1KX       0.089200
     11 N04          3.0360    -0.0690    -2.3180 nb         1 1KX      -0.824000
     12 C05          6.3930    -4.8720    -4.2690 c2         1 1KX      -0.184200
     13 N05          3.7840     0.9350    -4.3340 nv         1 1KX      -0.920500
     14 C06          6.5820    -6.1530    -4.6140 c2         1 1KX      -0.154200
     15 C07          5.3710    -6.7580    -5.2660 c3         1 1KX      -0.046500
     16 C08          4.8890    -8.0180    -4.5600 c3         1 1KX       0.140400
     17 C09          4.3230    -5.6340    -5.2830 c3         1 1KX      -0.089400
     18 C10          2.8260    -1.1780    -1.5540 ca         1 1KX       0.773200
     19 C11          3.6880    -0.2220    -3.5400 ca         1 1KX       0.904900
     20 C12          1.5600     0.0650     0.1480 cx         1 1KX       0.166500
     21 C13          0.7760     0.0410     1.4450 cx         1 1KX      -0.151900
     22 H           -0.4170     1.1180    -0.1410 hc         1 1KX       0.075200
     23 HA          -0.5570    -0.7030    -0.2070 hc         1 1KX       0.075200
     24 HN           1.9610    -1.9610     0.1000 hn         1 1KX       0.439800
     25 H03          3.9040    -5.6330    -2.3320 h5         1 1KX       0.094800
     26 H04          5.0950    -3.5710    -5.4180 h1         1 1KX       0.095700
     27 H05          7.1030    -4.1970    -3.7880 ha         1 1KX       0.152000
     28 HN05         3.6920     1.8000    -3.8520 hn         1 1KX       0.419300
     29 HN0A         4.4780     0.9140    -5.0450 hn         1 1KX       0.419300
     30 H06          7.4880    -6.7470    -4.4760 ha         1 1KX       0.141000
     31 H07          5.6310    -7.0530    -6.3210 hc         1 1KX       0.064700
     32 H09          4.0250    -5.3890    -6.3300 hc         1 1KX       0.064700
     33 H09A         3.4070    -5.9470    -4.7230 hc         1 1KX       0.064700
     34 H12          2.1230     0.9950    -0.0940 h1         1 1KX       0.113700
     35 H13          0.6930    -0.8980     2.0220 hc         1 1KX       0.075200
     36 H13A         0.8510     0.9220     2.1070 hc         1 1KX       0.075200
     37 H16          4.1250    -8.4960    -2.8550 ho         1 1KX       0.406000
     38 H08          4.0920    -8.5150    -5.1780 h1         1 1KX       0.026700
     39 H18          5.7480    -8.7290    -4.4260 h1         1 1KX       0.026700
@<TRIPOS>BOND
     1     1    20 1   
     2     1    21 1   
     3     1    22 1   
     4     1    23 1   
     5     2    18 1   
     6     2    20 1   
     7     2    24 1   
     8     3    16 1   
     9     3    37 1   
    10     4     5 ar  
    11     4     6 ar  
    12     4     9 1   
    13     5    19 ar  
    14     6     7 1   
    15     6    18 ar  
    16     7     8 2   
    17     8     9 1   
    18     8    25 1   
    19     9    10 1   
    20    10    12 1   
    21    10    17 1   
    22    10    26 1   
    23    11    18 ar  
    24    11    19 ar  
    25    12    14 2   
    26    12    27 1   
    27    13    19 1   
    28    13    28 1   
    29    13    29 1   
    30    14    15 1   
    31    14    30 1   
    32    15    16 1   
    33    15    17 1   
    34    15    31 1   
    35    16    38 1   
    36    16    39 1   
    37    17    32 1   
    38    17    33 1   
    39    20    21 1   
    40    20    34 1   
    41    21    35 1   
    42    21    36 1   
@<TRIPOS>SUBSTRUCTURE
     1 1KX         1 TEMP              0 ****  ****    0 ROOT
