@<TRIPOS>MOLECULE
molecule
   39    42     1     0     0
SMALL
bcc


@<TRIPOS>ATOM
      1 C            0.0000     0.0000     0.0000 cx         1 1KX      -0.160400
      2 N            2.2070    -1.2390    -0.3900 nu         1 1KX      -0.858900
      3 O            8.6120    -8.0270    -4.5480 oh         1 1KX      -0.610800
      4 C01          5.4530    -2.2700    -1.8070 ca         1 1KX       0.512800
      5 N01          6.0100    -1.0680    -1.9210 nb         1 1KX      -0.868000
      6 C02          4.1520    -2.3740    -1.2870 ca         1 1KX      -0.256200
      7 N02          3.8300    -3.6910    -1.2780 nc         1 1KX      -0.581100
      8 C03          4.8270    -4.3840    -1.7480 cd         1 1KX       0.406700
      9 N03          5.8510    -3.5510    -2.0920 na         1 1KX      -0.246000
     10 C04          7.1420    -3.9530    -2.6570 c3         1 1KX       0.090200
     11 N04          4.1210    -0.0350    -1.0560 nb         1 1KX      -0.882000
     12 C05          7.8110    -4.9730    -1.7670 c2         1 1KX      -0.209200
     13 N05          5.9650     1.2520    -1.6870 nv         1 1KX      -0.993500
     14 C06          8.3040    -5.9580    -2.4680 c2         1 1KX      -0.137200
     15 C07          8.0460    -5.7580    -3.9430 c3         1 1KX      -0.051500
     16 C08          7.5600    -7.0610    -4.5800 c3         1 1KX       0.150400
     17 C09          6.9370    -4.6820    -4.0050 c3         1 1KX      -0.098400
     18 C10          3.4900    -1.1940    -0.9080 ca         1 1KX       0.825200
     19 C11          5.3500     0.0180    -1.5520 ca         1 1KX       1.001900
     20 C12          1.5310     0.0000     0.0000 cx         1 1KX       0.185500
     21 C13          0.7650     0.0000     1.3250 cx         1 1KX      -0.160400
     22 H           -0.4680    -0.9390    -0.2700 hc         1 1KX       0.077700
     23 HA          -0.4670     0.9390    -0.2700 hc         1 1KX       0.077700
     24 HN           1.7380    -2.1170    -0.2910 hn         1 1KX       0.467800
     25 H03          4.8420    -5.4620    -1.8500 h5         1 1KX       0.077800
     26 H04          7.7860    -3.0920    -2.7910 h1         1 1KX       0.101700
     27 H05          8.3040    -4.6570    -0.8550 ha         1 1KX       0.150000
     28 HN05         5.4810     2.0840    -1.4120 hn         1 1KX       0.448800
     29 HN0A         6.8920     1.3110    -2.0590 hn         1 1KX       0.448800
     30 H06          9.2070    -6.4580    -2.1390 ha         1 1KX       0.152000
     31 H07          8.9420    -5.4010    -4.4350 hc         1 1KX       0.078700
     32 H09          7.0990    -4.0080    -4.8370 hc         1 1KX       0.064700
     33 H09A         5.9570    -5.1410    -4.0500 hc         1 1KX       0.064700
     34 H12          1.9840     0.9480    -0.2620 h1         1 1KX       0.121700
     35 H13          0.7640    -0.9390     1.8650 hc         1 1KX       0.077700
     36 H13A         0.7640     0.9390     1.8650 hc         1 1KX       0.077700
     37 H16          8.4040    -8.7380    -5.1320 ho         1 1KX       0.404000
     38 H08          7.2720    -6.8750    -5.6080 h1         1 1KX       0.025200
     39 H18          6.7070    -7.4370    -4.0280 h1         1 1KX       0.025200
@<TRIPOS>BOND
     1     1    22 1
     2     1    23 1
     3     2    24 1
     4     4     6 ar
     5     5     4 ar
     6     5    19 ar
     7     6    18 ar
     8     6     7 1
     9     8     7 2
    10     8    25 1
    11     9     4 1
    12     9     8 1
    13    10     9 1
    14    10    17 1
    15    10    26 1
    16    11    18 ar
    17    12    10 1
    18    12    14 2
    19    12    27 1
    20    13    19 1
    21    13    28 1
    22    13    29 1
    23    14    15 1
    24    14    30 1
    25    15    16 1
    26    15    31 1
    27     3    16 1
    28    17    15 1
    29    17    32 1
    30    17    33 1
    31    18     2 1
    32    19    11 ar
    33    20     1 1
    34    20     2 1
    35    20    21 1
    36    20    34 1
    37    21     1 1
    38    21    35 1
    39    21    36 1
    40     3    37 1
    41    16    38 1
    42    16    39 1
@<TRIPOS>SUBSTRUCTURE
     1 1KX         1 TEMP              0 ****  ****    0 ROOT
