@<TRIPOS>MOLECULE
1KY
   63    67     1     0     0
SMALL
bcc


@<TRIPOS>ATOM
      1 C            0.5670    -0.9140    -0.4700 c          1 1KY       0.689500
      2 N            2.3750    -0.8100     1.2200 n3         1 1KY      -0.812500
      3 O            0.1740    -0.5230    -1.5860 o          1 1KY      -0.645500
      4 CA           2.0840    -1.0070    -0.1820 c3         1 1KY       0.181500
      5 CB           2.5590    -2.3870    -0.6770 c3         1 1KY      -0.087400
      6 CAA         -4.4570     5.1350    -1.9420 c3         1 1KY       0.112700
      7 CAB         -3.4480     6.0410     2.1390 c3         1 1KY       0.116700
      8 OAD         -0.5110     5.8510     5.2820 o          1 1KY      -0.568500
      9 OAE          4.3410     0.6230     0.7600 o          1 1KY      -0.650800
     10 OAF          4.0220    -0.2300     2.9900 o          1 1KY      -0.650800
     11 CAG         -3.4390     1.5230    -0.0580 ca         1 1KY      -0.173000
     12 CAH         -3.8420     2.7090    -0.6740 ca         1 1KY      -0.153000
     13 CAI          1.9400     2.3960     1.1720 ca         1 1KY       0.022000
     14 CAJ          1.1540     3.5040     1.4530 ca         1 1KY      -0.169000
     15 CAK         -2.4500     2.8080     1.7620 ca         1 1KY      -0.144000
     16 CAL          2.3140     1.9720     3.5230 ca         1 1KY       0.052000
     17 CAM          2.0190    -3.5130     0.1820 c3         1 1KY      -0.079400
     18 CAN         -2.6300    -0.8160     1.3910 c3         1 1KY       0.110400
     19 CAO          2.1130    -3.2210     1.6660 c3         1 1KY      -0.091400
     20 CAQ         -1.7360    -1.3260     0.2560 c3         1 1KY       0.059000
     21 CAR          0.1270    -1.6410     1.8510 c3         1 1KY       0.086000
     22 NAS          0.1690     4.9050     3.2720 ns         1 1KY      -0.456100
     23 OAT         -3.9060     5.1660    -0.6290 os         1 1KY      -0.324900
     24 OAU         -2.3990     5.1810     1.6890 os         1 1KY      -0.358900
     25 OAV         -2.2710     0.4800     1.8560 os         1 1KY      -0.324900
     26 SAW          1.1570     3.7170     5.3730 ss         1 1KY      -0.062500
     27 CAY         -2.7420     1.5740     1.1510 ca         1 1KY       0.109100
     28 CAZ          2.5120     1.6080     2.1850 ca         1 1KY      -0.417500
     29 CBA         -3.5410     3.9440    -0.0960 ca         1 1KY       0.072100
     30 CBB         -2.8340     3.9890     1.1290 ca         1 1KY       0.100100
     31 CBC          0.1370     4.9910     4.6750 c          1 1KY       0.694100
     32 CBD          0.9360     3.8460     2.7980 ca         1 1KY       0.109600
     33 CBE          1.5450     3.0780     3.8410 ca         1 1KY      -0.122100
     34 CBF          1.6670    -1.7900     2.0190 c3         1 1KY       0.237500
     35 NBH         -0.3160    -1.3390     0.5100 n          1 1KY      -0.457800
     36 SBJ          3.4530     0.2710     1.7970 sy         1 1KY       1.524200
     37 HA           2.5920    -0.2010    -0.7920 h1         1 1KY       0.106700
     38 HB           2.2190    -2.5150    -1.7370 hc         1 1KY       0.065700
     39 HBA          3.6800    -2.4040    -0.6700 hc         1 1KY       0.065700
     40 HAA         -3.7560     4.6420    -2.6570 h1         1 1KY       0.046367
     41 HAAA        -5.4460     4.6150    -1.9380 h1         1 1KY       0.046367
     42 HAAB        -4.5830     6.2190    -2.1940 h1         1 1KY       0.046367
     43 HAB         -4.0670     5.5250     2.9120 h1         1 1KY       0.050033
     44 HABA        -2.8990     6.9090     2.5830 h1         1 1KY       0.050033
     45 HABB        -4.0810     6.3650     1.2780 h1         1 1KY       0.050033
     46 HAG         -3.6710     0.5650    -0.5440 ha         1 1KY       0.142000
     47 HAH         -4.3880     2.6550    -1.6270 ha         1 1KY       0.144000
     48 HAI          2.1260     2.1270     0.1160 ha         1 1KY       0.151000
     49 HAJ          0.7050     4.0970     0.6430 ha         1 1KY       0.161000
     50 HAK         -1.9070     2.8360     2.7170 ha         1 1KY       0.161000
     51 HAL          2.7840     1.3710     4.3240 ha         1 1KY       0.170000
     52 HAM          0.9480    -3.7080    -0.0910 hc         1 1KY       0.048200
     53 HAMA         2.5900    -4.4520    -0.0440 hc         1 1KY       0.048200
     54 HAN         -3.6990    -0.8470     1.0530 h1         1 1KY       0.062700
     55 HANA        -2.5140    -1.4500     2.3130 h1         1 1KY       0.062700
     56 HAO          1.4760    -3.9450     2.2360 hc         1 1KY       0.055200
     57 HAOA         3.1720    -3.3610     2.0110 hc         1 1KY       0.055200
     58 HAQ         -2.0640    -2.3850     0.0370 h1         1 1KY       0.067200
     59 HAQA        -1.9230    -0.7020    -0.6670 h1         1 1KY       0.067200
     60 HAR         -0.3560    -2.6060     2.1780 h1         1 1KY       0.050700
     61 HARA        -0.2280    -0.8200     2.5420 h1         1 1KY       0.050700
     62 HNAS        -0.4340     5.4360     2.6810 hn         1 1KY       0.371500
     63 HBF          1.9030    -1.6070     3.1100 h1         1 1KY       0.080700
@<TRIPOS>BOND
     1     1     3 2   
     2     1     4 1   
     3     1    35 1   
     4     2     4 1   
     5     2    34 1   
     6     2    36 1   
     7     4     5 1   
     8     4    37 1   
     9     5    17 1   
    10     5    38 1   
    11     5    39 1   
    12     6    23 1   
    13     6    40 1   
    14     6    41 1   
    15     6    42 1   
    16     7    24 1   
    17     7    43 1   
    18     7    44 1   
    19     7    45 1   
    20     8    31 2   
    21     9    36 2   
    22    10    36 2   
    23    11    12 ar  
    24    11    27 ar  
    25    11    46 1   
    26    12    29 ar  
    27    12    47 1   
    28    13    14 ar  
    29    13    28 ar  
    30    13    48 1   
    31    14    32 ar  
    32    14    49 1   
    33    15    27 ar  
    34    15    30 ar  
    35    15    50 1   
    36    16    28 ar  
    37    16    33 ar  
    38    16    51 1   
    39    17    19 1   
    40    17    52 1   
    41    17    53 1   
    42    18    20 1   
    43    18    25 1   
    44    18    54 1   
    45    18    55 1   
    46    19    34 1   
    47    19    56 1   
    48    19    57 1   
    49    20    35 1   
    50    20    58 1   
    51    20    59 1   
    52    21    34 1   
    53    21    35 1   
    54    21    60 1   
    55    21    61 1   
    56    22    31 1   
    57    22    32 1   
    58    22    62 1   
    59    23    29 1   
    60    24    30 1   
    61    25    27 1   
    62    26    31 1   
    63    26    33 1   
    64    28    36 1   
    65    29    30 ar  
    66    32    33 ar  
    67    34    63 1   
@<TRIPOS>SUBSTRUCTURE
     1 1KY         1 TEMP              0 ****  ****    0 ROOT
