@<TRIPOS>MOLECULE
molecule
   63    67     1     0     0
SMALL
bcc


@<TRIPOS>ATOM
      1 C            0.0000     0.0000     0.0000 c          1 1KY       0.703500
      2 N            1.9470     0.0000     1.4140 n3         1 1KY      -0.819500
      3 O           -0.5880     0.4090    -0.9790 o          1 1KY      -0.620500
      4 CA           1.5120     0.0000     0.0000 c3         1 1KY       0.181500
      5 CB           1.9610    -1.3500    -0.5950 c3         1 1KY      -0.091400
      6 CAA         -5.2760     7.0070     2.4560 c3         1 1KY       0.129700
      7 CAB         -1.7880     6.1330    -1.8470 c3         1 1KY       0.124700
      8 OAD          9.8880    -2.5480     2.6840 o          1 1KY      -0.559500
      9 OAE          2.9590     2.2340     1.1490 o          1 1KY      -0.626300
     10 OAF          2.7970     1.1780     3.4090 o          1 1KY      -0.626300
     11 CAG         -3.7540     3.2920     1.6960 ca         1 1KY      -0.229000
     12 CAH         -4.2570     4.5570     1.9330 ca         1 1KY      -0.152000
     13 CAI          5.3540     0.6550     0.6430 ca         1 1KY      -0.001000
     14 CAJ          6.6140     0.1310     0.4750 ca         1 1KY      -0.164000
     15 CAK         -2.5310     4.1260    -0.1960 ca         1 1KY      -0.216000
     16 CAL          5.1970    -0.3540     2.8030 ca         1 1KY       0.043000
     17 CAM          1.2480    -2.4640     0.1800 c3         1 1KY      -0.086400
     18 CAN         -2.8120     0.7910     1.2950 c3         1 1KY       0.121400
     19 CAO          1.6620    -2.4190     1.6520 c3         1 1KY      -0.094400
     20 CAQ         -2.1600    -0.5290     0.8790 c3         1 1KY       0.101000
     21 CAR         -0.1550    -0.8210     2.3330 c3         1 1KY       0.104000
     22 NAS          8.4530    -1.2510     1.4670 ns         1 1KY      -0.450100
     23 OAT         -4.3980     6.8560     1.3390 os         1 1KY      -0.315900
     24 OAU         -2.6900     6.4260    -0.7780 os         1 1KY      -0.311900
     25 OAV         -2.3980     1.8280     0.4020 os         1 1KY      -0.303900
     26 SAW          7.4840    -1.8870     3.6790 ss         1 1KY      -0.149500
     27 CAY         -2.8920     3.0740     0.6330 ca         1 1KY       0.145100
     28 CAZ          4.6380     0.4210     1.8050 ca         1 1KY      -0.334500
     29 CBA         -3.9030     5.6100     1.1040 ca         1 1KY       0.077100
     30 CBB         -3.0420     5.3930     0.0340 ca         1 1KY       0.152100
     31 CBC          8.8310    -1.9630     2.5330 c          1 1KY       0.723100
     32 CBD          7.2050    -0.6530     1.4780 ca         1 1KY       0.081600
     33 CBE          6.4670    -0.8780     2.6410 ca         1 1KY      -0.056100
     34 CBF          1.3500    -1.0530     2.2570 c3         1 1KY       0.236500
     35 NBH         -0.7070    -0.4310     1.0450 n          1 1KY      -0.477800
     36 SBJ          3.0270     1.1050     2.0080 sy         1 1KY       1.431200
     37 HA           1.9180     0.8410    -0.5500 h1         1 1KY       0.119700
     38 HB           3.0340    -1.4580    -0.4870 hc         1 1KY       0.059200
     39 HBA          1.6850    -1.3980    -1.6410 hc         1 1KY       0.059200
     40 HAA         -6.1430     6.3710     2.3220 h1         1 1KY       0.037700
     41 HAAA        -5.5940     8.0400     2.5290 h1         1 1KY       0.037700
     42 HAAB        -4.7570     6.7230     3.3640 h1         1 1KY       0.037700
     43 HAB         -0.8600     5.7500    -1.4420 h1         1 1KY       0.043033
     44 HABA        -2.2310     5.3910    -2.5000 h1         1 1KY       0.043033
     45 HABB        -1.5900     7.0370    -2.4100 h1         1 1KY       0.043033
     46 HAG         -4.0330     2.4690     2.3430 ha         1 1KY       0.131000
     47 HAH         -4.9310     4.7250     2.7650 ha         1 1KY       0.138000
     48 HAI          4.9180     1.2620    -0.1410 ha         1 1KY       0.159000
     49 HAJ          7.1570     0.3260    -0.4410 ha         1 1KY       0.143000
     50 HAK         -1.8570     3.9560    -1.0270 ha         1 1KY       0.160000
     51 HAL          4.6450    -0.5430     3.7160 ha         1 1KY       0.161000
     52 HAM          0.1770    -2.3240     0.1050 hc         1 1KY       0.053700
     53 HAMA         1.5210    -3.4240    -0.2400 hc         1 1KY       0.053700
     54 HAN         -3.8900     0.6900     1.2560 h1         1 1KY       0.037700
     55 HANA        -2.5090     1.0420     2.3040 h1         1 1KY       0.037700
     56 HAO          1.1190    -3.1820     2.1970 hc         1 1KY       0.051200
     57 HAOA         2.7260    -2.6080     1.7280 hc         1 1KY       0.051200
     58 HAQ         -2.3910    -0.7350    -0.1600 h1         1 1KY       0.071200
     59 HAQA        -2.5410    -1.3310     1.4990 h1         1 1KY       0.071200
     60 HAR         -0.6360    -1.7350     2.6590 h1         1 1KY       0.050700
     61 HARA        -0.3540    -0.0350     3.0520 h1         1 1KY       0.050700
     62 HNAS         9.0610    -1.1510     0.6780 hn         1 1KY       0.343500
     63 HBF          1.7730    -0.9970     3.2530 h1         1 1KY       0.084700
@<TRIPOS>BOND
     1    35     1 1   
     2     1     3 2   
     3     1     4 1   
     4    36     2 1   
     5     2    34 1   
     6     2     4 1   
     7     4     5 1   
     8     4    37 1   
     9    17     5 1   
    10     5    38 1   
    11     5    39 1   
    12    23     6 1   
    13     6    40 1   
    14     6    41 1   
    15     6    42 1   
    16     7    24 1   
    17     7    43 1   
    18     7    44 1   
    19     7    45 1   
    20     8    31 2   
    21    36     9 2   
    22    36    10 2   
    23    27    11 ar  
    24    11    12 ar  
    25    11    46 1   
    26    29    12 ar  
    27    12    47 1   
    28    14    13 ar  
    29    13    28 ar  
    30    13    48 1   
    31    32    14 ar  
    32    14    49 1   
    33    15    27 ar  
    34    15    30 ar  
    35    15    50 1   
    36    33    16 ar  
    37    16    28 ar  
    38    16    51 1   
    39    19    17 1   
    40    17    52 1   
    41    17    53 1   
    42    18    25 1   
    43    18    20 1   
    44    18    54 1   
    45    18    55 1   
    46    34    19 1   
    47    19    56 1   
    48    19    57 1   
    49    20    35 1   
    50    20    58 1   
    51    20    59 1   
    52    21    35 1   
    53    21    34 1   
    54    21    60 1   
    55    21    61 1   
    56    31    22 1   
    57    22    32 1   
    58    22    62 1   
    59    29    23 1   
    60    24    30 1   
    61    25    27 1   
    62    31    26 1   
    63    26    33 1   
    64    28    36 1   
    65    30    29 ar  
    66    32    33 ar  
    67    34    63 1   
@<TRIPOS>SUBSTRUCTURE
     1 1KY         1 TEMP              0 ****  ****    0 ROOT
