@<TRIPOS>MOLECULE
molecule
   61    64     1     0     0
SMALL
bcc


@<TRIPOS>ATOM
      1 CAB          0.0000     0.0000     0.0000 c3         1 1KZ       0.125700
      2 OAU          1.4290     0.0000     0.0000 os         1 1KZ      -0.309900
      3 CBC          2.0470     0.0000     1.2120 ca         1 1KZ       0.152100
      4 CAK          1.2920    -0.0060     2.3740 ca         1 1KZ      -0.222000
      5 CBB          3.4360     0.0000     1.2870 ca         1 1KZ       0.080100
      6 OAT          4.1780     0.0000     0.1460 os         1 1KZ      -0.314900
      7 CAA          5.5990     0.0010     0.2970 c3         1 1KZ       0.128700
      8 CAH          4.0630    -0.0000     2.5210 ca         1 1KZ      -0.150000
      9 CAG          3.3090     0.0000     3.6800 ca         1 1KZ      -0.224000
     10 CAZ          1.9240    -0.0050     3.6090 ca         1 1KZ       0.145100
     11 OAW          1.1850    -0.0100     4.7500 os         1 1KZ      -0.327900
     12 CAP          1.9000    -0.0110     5.9870 c3         1 1KZ       0.137400
     13 CAO          0.9080    -0.0170     7.1510 c3         1 1KZ       0.156400
     14 OAV          0.1580    -1.2610     7.1410 os         1 1KZ      -0.395900
     15 C           -0.7620    -1.4250     8.1050 c          1 1KZ       0.648100
     16 O           -0.9340    -0.5590     8.9290 o          1 1KZ      -0.577000
     17 CA          -1.5770    -2.6910     8.1590 c3         1 1KZ       0.208500
     18 CB          -3.0650    -2.3480     8.0340 c3         1 1KZ      -0.088400
     19 CAM         -3.8960    -3.6180     8.2270 c3         1 1KZ      -0.075400
     20 CAN         -3.6470    -4.1830     9.6280 c3         1 1KZ      -0.102400
     21 CAR         -2.1660    -4.5470     9.7720 c3         1 1KZ       0.239800
     22 N           -1.3560    -3.3660     9.4450 n3         1 1KZ      -0.809500
     23 S1          -0.2120    -2.8070    10.5050 sy         1 1KZ       1.437200
     24 OAE          0.1370    -3.9070    11.3340 o          1 1KZ      -0.635300
     25 OAF          0.7350    -2.0850     9.7300 o          1 1KZ      -0.635300
     26 CBA         -1.0030    -1.6280    11.5490 ca         1 1KZ      -0.323500
     27 CAL         -1.8920    -2.0440    12.5210 ca         1 1KZ       0.038000
     28 CBF         -2.5070    -1.1130    13.3380 ca         1 1KZ      -0.060100
     29 SAX         -3.6740    -1.2690    14.6580 ss         1 1KZ      -0.162500
     30 CBD         -3.7710     0.4710    14.9740 c          1 1KZ       0.726100
     31 OAD         -4.4500     1.0240    15.8190 o          1 1KZ      -0.564500
     32 NAS         -2.9480     1.0530    14.0960 ns         1 1KZ      -0.451100
     33 CBE         -2.2530     0.2540    13.2070 ca         1 1KZ       0.081600
     34 CAJ         -1.3470     0.6520    12.2110 ca         1 1KZ      -0.171000
     35 CAI         -0.7340    -0.2780    11.4060 ca         1 1KZ       0.038000
     36 H1          -0.3610     0.8830     0.5140 h1         1 1KZ       0.041700
     37 H2          -0.3610    -0.8860     0.5080 h1         1 1KZ       0.041700
     38 H3          -0.3610     0.0040    -1.0210 h1         1 1KZ       0.041700
     39 H4           0.2100    -0.0100     2.3190 ha         1 1KZ       0.153000
     40 H5           5.9040     0.8850     0.8420 h1         1 1KZ       0.039033
     41 H6           5.9050    -0.8840     0.8430 h1         1 1KZ       0.039033
     42 H7           6.0660     0.0000    -0.6810 h1         1 1KZ       0.039033
     43 H8           5.1450     0.0020     2.5790 ha         1 1KZ       0.141000
     44 H9           3.8010     0.0010     4.6460 ha         1 1KZ       0.135000
     45 H10          2.5200     0.8760     6.0450 h1         1 1KZ       0.051700
     46 H11          2.5260    -0.8930     6.0410 h1         1 1KZ       0.051700
     47 H12          1.4470     0.0720     8.0870 h1         1 1KZ       0.066700
     48 H13          0.2240     0.8180     7.0480 h1         1 1KZ       0.066700
     49 H14         -1.2890    -3.3500     7.3490 h1         1 1KZ       0.081700
     50 H15         -3.3330    -1.6230     8.7930 hc         1 1KZ       0.063200
     51 H16         -3.2590    -1.9380     7.0500 hc         1 1KZ       0.063200
     52 H17         -4.9470    -3.3810     8.1170 hc         1 1KZ       0.048700
     53 H18         -3.6070    -4.3540     7.4860 hc         1 1KZ       0.048700
     54 H19         -4.2520    -5.0700     9.7720 hc         1 1KZ       0.053200
     55 H20         -3.9080    -3.4370    10.3690 hc         1 1KZ       0.053200
     56 H21         -1.9240    -5.3530     9.0900 h1         1 1KZ       0.063200
     57 H22         -1.9650    -4.8530    10.7910 h1         1 1KZ       0.063200
     58 H25         -2.0480    -3.1020    12.6930 ha         1 1KZ       0.150000
     59 H26         -2.8350     2.0480    14.0830 hn         1 1KZ       0.341500
     60 H27         -1.1220     1.7040    12.0820 ha         1 1KZ       0.141000
     61 H28         -0.0230     0.0490    10.6570 ha         1 1KZ       0.177000
@<TRIPOS>BOND
     1    19    18 1   
     2    19    20 1   
     3    18    17 1   
     4    20    21 1   
     5    17    22 1   
     6    17    15 1   
     7    16    15 2   
     8    21    22 1   
     9    22    23 1   
    10    15    14 1   
    11    25    23 2   
    12    24    23 2   
    13    14    13 1   
    14    13    12 1   
    15    26    27 ar  
    16    26    35 ar  
    17    11    12 1   
    18    11    10 1   
    19    27    28 ar  
    20     1     2 1   
    21    35    34 ar  
    22     4    10 ar  
    23     4     3 ar  
    24    10     9 ar  
    25    28    29 1   
    26    28    33 ar  
    27     2     3 1   
    28     3     5 ar  
    29    34    33 ar  
    30    29    30 1   
    31    33    32 1   
    32     9     8 ar  
    33     5     8 ar  
    34     5     6 1   
    35    32    30 1   
    36    30    31 2   
    37     6     7 1   
    38    23    26 1   
    39     1    36 1   
    40     1    37 1   
    41     1    38 1   
    42     4    39 1   
    43     7    40 1   
    44     7    41 1   
    45     7    42 1   
    46     8    43 1   
    47     9    44 1   
    48    12    45 1   
    49    12    46 1   
    50    13    47 1   
    51    13    48 1   
    52    17    49 1   
    53    18    50 1   
    54    18    51 1   
    55    19    52 1   
    56    19    53 1   
    57    20    54 1   
    58    20    55 1   
    59    21    56 1   
    60    21    57 1   
    61    27    58 1   
    62    32    59 1   
    63    34    60 1   
    64    35    61 1   
@<TRIPOS>SUBSTRUCTURE
     1 1KZ         1 TEMP              0 ****  ****    0 ROOT
