@<TRIPOS>MOLECULE
1KZ
   61    64     1     0     0
SMALL
bcc


@<TRIPOS>ATOM
      1 CAB          0.0000     0.0000     0.0000 c3         1 1KZ       0.241700
      2 OAU          1.4290     0.0000     0.0000 os         1 1KZ      -0.291900
      3 CBC          2.0470     0.0000     1.2120 ca         1 1KZ       0.157100
      4 CAK          1.2920    -0.0060     2.3740 ca         1 1KZ      -0.221000
      5 CBB          3.4360     0.0000     1.2870 ca         1 1KZ       0.078100
      6 OAT          4.1780     0.0000     0.1460 os         1 1KZ      -0.293900
      7 CAA          5.5990     0.0010     0.2970 c3         1 1KZ       0.241700
      8 CAH          4.0630    -0.0000     2.5210 ca         1 1KZ      -0.131000
      9 CAG          3.3090     0.0000     3.6800 ca         1 1KZ      -0.212000
     10 CAZ          1.9240    -0.0050     3.6090 ca         1 1KZ       0.157100
     11 OAW          1.1850    -0.0100     4.7500 os         1 1KZ      -0.305900
     12 CAP          1.9000    -0.0110     5.9870 c3         1 1KZ       0.194400
     13 CAO          0.9080    -0.0170     7.1510 c3         1 1KZ       0.226400
     14 OAV          0.1580    -1.2610     7.1410 os         1 1KZ      -0.383900
     15 C           -0.7620    -1.4250     8.1050 c          1 1KZ       0.724100
     16 O           -0.9340    -0.5590     8.9290 o          1 1KZ      -0.619000
     17 CA          -1.5770    -2.6910     8.1590 c3         1 1KZ       0.170500
     18 CB          -3.0650    -2.3480     8.0340 c3         1 1KZ      -0.040400
     19 CAM         -3.8960    -3.6180     8.2270 c3         1 1KZ      -0.018400
     20 CAN         -3.6470    -4.1830     9.6280 c3         1 1KZ      -0.051400
     21 CAR         -2.1660    -4.5470     9.7720 c3         1 1KZ       0.240800
     22 N           -1.3560    -3.3660     9.4450 n3         1 1KZ      -0.520500
     23 S1          -0.2120    -2.8070    10.5050 sy         1 1KZ       1.064200
     24 OAE          0.1370    -3.9070    11.3340 o          1 1KZ      -0.588800
     25 OAF          0.7350    -2.0850     9.7300 o          1 1KZ      -0.588800
     26 CBA         -1.0030    -1.6280    11.5490 ca         1 1KZ      -0.166500
     27 CAL         -1.8920    -2.0440    12.5210 ca         1 1KZ       0.083000
     28 CBF         -2.5070    -1.1130    13.3380 ca         1 1KZ      -0.043100
     29 SAX         -3.6740    -1.2690    14.6580 ss         1 1KZ      -0.255500
     30 CBD         -3.7710     0.4710    14.9740 c          1 1KZ       0.666100
     31 OAD         -4.4500     1.0240    15.8190 o          1 1KZ      -0.595500
     32 NAS         -2.9480     1.0530    14.0960 ns         1 1KZ       0.005900
     33 CBE         -2.2530     0.2540    13.2070 ca         1 1KZ      -0.076400
     34 CAJ         -1.3470     0.6520    12.2110 ca         1 1KZ      -0.142000
     35 CAI         -0.7340    -0.2780    11.4060 ca         1 1KZ       0.063000
     36 H1          -0.3610     0.8830     0.5140 h1         1 1KZ      -0.002633
     37 H2          -0.3610    -0.8860     0.5080 h1         1 1KZ      -0.002633
     38 H3          -0.3610     0.0040    -1.0210 h1         1 1KZ      -0.002633
     39 H4           0.2100    -0.0100     2.3190 ha         1 1KZ       0.134000
     40 H5           5.9040     0.8850     0.8420 h1         1 1KZ      -0.004300
     41 H6           5.9050    -0.8840     0.8430 h1         1 1KZ      -0.004300
     42 H7           6.0660     0.0000    -0.6810 h1         1 1KZ      -0.004300
     43 H8           5.1450     0.0020     2.5790 ha         1 1KZ       0.120000
     44 H9           3.8010     0.0010     4.6460 ha         1 1KZ       0.120000
     45 H10          2.5200     0.8760     6.0450 h1         1 1KZ       0.012700
     46 H11          2.5260    -0.8930     6.0410 h1         1 1KZ       0.012700
     47 H12          1.4470     0.0720     8.0870 h1         1 1KZ       0.023200
     48 H13          0.2240     0.8180     7.0480 h1         1 1KZ       0.023200
     49 H14         -1.2890    -3.3500     7.3490 h1         1 1KZ       0.041700
     50 H15         -3.3330    -1.6230     8.7930 hc         1 1KZ       0.031200
     51 H16         -3.2590    -1.9380     7.0500 hc         1 1KZ       0.031200
     52 H17         -4.9470    -3.3810     8.1170 hc         1 1KZ       0.018200
     53 H18         -3.6070    -4.3540     7.4860 hc         1 1KZ       0.018200
     54 H19         -4.2520    -5.0700     9.7720 hc         1 1KZ       0.022700
     55 H20         -3.9080    -3.4370    10.3690 hc         1 1KZ       0.022700
     56 H21         -1.9240    -5.3530     9.0900 h1         1 1KZ       0.028200
     57 H22         -1.9650    -4.8530    10.7910 h1         1 1KZ       0.028200
     58 H25         -2.0480    -3.1020    12.6930 ha         1 1KZ       0.122000
     59 H26         -2.8350     2.0480    14.0830 hn         1 1KZ       0.178500
     60 H27         -1.1220     1.7040    12.0820 ha         1 1KZ       0.113000
     61 H28         -0.0230     0.0490    10.6570 ha         1 1KZ       0.151000
@<TRIPOS>BOND
     1     1     2 1   
     2     1    36 1   
     3     1    37 1   
     4     1    38 1   
     5     2     3 1   
     6     3     4 ar  
     7     3     5 ar  
     8     4    10 ar  
     9     4    39 1   
    10     5     6 1   
    11     5     8 ar  
    12     6     7 1   
    13     7    40 1   
    14     7    41 1   
    15     7    42 1   
    16     8     9 ar  
    17     8    43 1   
    18     9    10 ar  
    19     9    44 1   
    20    10    11 1   
    21    11    12 1   
    22    12    13 1   
    23    12    45 1   
    24    12    46 1   
    25    13    14 1   
    26    13    47 1   
    27    13    48 1   
    28    14    15 1   
    29    15    16 2   
    30    15    17 1   
    31    17    18 1   
    32    17    22 1   
    33    17    49 1   
    34    18    19 1   
    35    18    50 1   
    36    18    51 1   
    37    19    20 1   
    38    19    52 1   
    39    19    53 1   
    40    20    21 1   
    41    20    54 1   
    42    20    55 1   
    43    21    22 1   
    44    21    56 1   
    45    21    57 1   
    46    22    23 1   
    47    23    24 2   
    48    23    25 2   
    49    23    26 1   
    50    26    27 ar  
    51    26    35 ar  
    52    27    28 ar  
    53    27    58 1   
    54    28    29 1   
    55    28    33 ar  
    56    29    30 1   
    57    30    31 2   
    58    30    32 1   
    59    32    33 1   
    60    32    59 1   
    61    33    34 ar  
    62    34    35 ar  
    63    34    60 1   
    64    35    61 1   
@<TRIPOS>SUBSTRUCTURE
     1 1KZ         1 TEMP              0 ****  ****    0 ROOT
