@<TRIPOS>MOLECULE
1KZ
   61    64     1     0     0
SMALL
bcc


@<TRIPOS>ATOM
      1 CAB          0.7780    -1.3500     0.6420 c3         1 1KZ       0.108700
      2 OAU          2.1240    -0.9670     0.9130 os         1 1KZ      -0.330900
      3 CBC          2.4060    -0.6050     2.2140 ca         1 1KZ       0.112100
      4 CAK          1.4510    -0.4940     3.2290 ca         1 1KZ      -0.199000
      5 CBB          3.7630    -0.3070     2.4820 ca         1 1KZ       0.038100
      6 OAT          4.6990    -0.2500     1.4600 os         1 1KZ      -0.352900
      7 CAA          5.0580    -1.5260     0.9240 c3         1 1KZ       0.111700
      8 CAH          4.1600     0.0700     3.7690 ca         1 1KZ      -0.095000
      9 CAG          3.2130     0.1870     4.7840 ca         1 1KZ      -0.176000
     10 CAZ          1.8700    -0.0880     4.5040 ca         1 1KZ       0.124100
     11 OAW          0.9070    -0.0560     5.5050 os         1 1KZ      -0.339900
     12 CAP          0.6890     1.2360     6.0790 c3         1 1KZ       0.126400
     13 CAO         -0.1720     2.0890     5.1530 c3         1 1KZ       0.105400
     14 OAV          0.4150     3.4010     5.1550 os         1 1KZ      -0.447900
     15 C           -0.1480     4.3230     4.3140 c          1 1KZ       0.613100
     16 O           -1.0850     3.9650     3.6000 o          1 1KZ      -0.529000
     17 CA           0.5120     5.6960     4.4560 c3         1 1KZ       0.209500
     18 CB          -0.3280     6.5030     5.4670 c3         1 1KZ      -0.082400
     19 CAM         -1.6240     6.9900     4.8540 c3         1 1KZ      -0.084400
     20 CAN         -1.3650     7.7360     3.5630 c3         1 1KZ      -0.089400
     21 CAR         -0.5410     6.8770     2.6020 c3         1 1KZ       0.205800
     22 N            0.6760     6.3610     3.1900 n3         1 1KZ      -0.799500
     23 S1           2.1480     6.6220     2.5140 sy         1 1KZ       1.515200
     24 OAE          3.1070     6.7550     3.5430 o          1 1KZ      -0.650800
     25 OAF          2.0540     7.6810     1.5860 o          1 1KZ      -0.650800
     26 CBA          2.4560     5.1960     1.6830 ca         1 1KZ      -0.422500
     27 CAL          1.9630     4.9980     0.3880 ca         1 1KZ       0.062000
     28 CBF          2.2120     3.8130    -0.2830 ca         1 1KZ      -0.122100
     29 SAX          1.7140     3.3230    -1.8380 ss         1 1KZ      -0.067500
     30 CBD          2.4670     1.7230    -1.6670 c          1 1KZ       0.695100
     31 OAD          2.4560     0.8000    -2.4880 o          1 1KZ      -0.572500
     32 NAS          3.1150     1.6380    -0.4230 ns         1 1KZ      -0.451100
     33 CBE          2.9780     2.7840     0.3520 ca         1 1KZ       0.114600
     34 CAJ          3.5090     2.9930     1.6360 ca         1 1KZ      -0.176000
     35 CAI          3.2390     4.1920     2.2770 ca         1 1KZ       0.012000
     36 H1           0.0850    -0.4900     0.8120 h1         1 1KZ       0.053367
     37 H2           0.4830    -2.2240     1.2700 h1         1 1KZ       0.053367
     38 H3           0.8050    -1.6270    -0.4430 h1         1 1KZ       0.053367
     39 H4           0.3900    -0.7160     3.0520 ha         1 1KZ       0.159000
     40 H5           5.8080    -1.2770     0.1330 h1         1 1KZ       0.049700
     41 H6           4.1610    -2.0260     0.4830 h1         1 1KZ       0.049700
     42 H7           5.5130    -2.1640     1.7180 h1         1 1KZ       0.049700
     43 H8           5.2210     0.2860     3.9620 ha         1 1KZ       0.154000
     44 H9           3.5170     0.4880     5.7970 ha         1 1KZ       0.150000
     45 H10          0.1410     1.0020     7.0310 h1         1 1KZ       0.072200
     46 H11          1.6610     1.7460     6.3070 h1         1 1KZ       0.072200
     47 H12         -0.1710     1.6830     4.1060 h1         1 1KZ       0.065200
     48 H13         -1.2280     2.1690     5.5170 h1         1 1KZ       0.065200
     49 H14          1.5410     5.5310     4.9090 h1         1 1KZ       0.102700
     50 H15          0.2820     7.3770     5.8140 hc         1 1KZ       0.062200
     51 H16         -0.5350     5.8510     6.3540 hc         1 1KZ       0.062200
     52 H17         -2.1550     7.6560     5.5810 hc         1 1KZ       0.052700
     53 H18         -2.2890     6.1090     4.6460 hc         1 1KZ       0.052700
     54 H19         -2.3360     7.9870     3.0630 hc         1 1KZ       0.053200
     55 H20         -0.8310     8.6970     3.7760 hc         1 1KZ       0.053200
     56 H21         -0.2710     7.4940     1.6970 h1         1 1KZ       0.068700
     57 H22         -1.1770     6.0040     2.2680 h1         1 1KZ       0.068700
     58 H25          1.3800     5.8000    -0.1010 ha         1 1KZ       0.159000
     59 H26          3.5280     0.7980    -0.0730 hn         1 1KZ       0.377500
     60 H27          4.1190     2.2110     2.1190 ha         1 1KZ       0.166000
     61 H28          3.6590     4.3710     3.2850 ha         1 1KZ       0.159000
@<TRIPOS>BOND
     1     1     2 1   
     2     1    36 1   
     3     1    37 1   
     4     1    38 1   
     5     2     3 1   
     6     3     4 ar  
     7     3     5 ar  
     8     4    10 ar  
     9     4    39 1   
    10     5     6 1   
    11     5     8 ar  
    12     6     7 1   
    13     7    40 1   
    14     7    41 1   
    15     7    42 1   
    16     8     9 ar  
    17     8    43 1   
    18     9    10 ar  
    19     9    44 1   
    20    10    11 1   
    21    11    12 1   
    22    12    13 1   
    23    12    45 1   
    24    12    46 1   
    25    13    14 1   
    26    13    47 1   
    27    13    48 1   
    28    14    15 1   
    29    15    16 2   
    30    15    17 1   
    31    17    18 1   
    32    17    22 1   
    33    17    49 1   
    34    18    19 1   
    35    18    50 1   
    36    18    51 1   
    37    19    20 1   
    38    19    52 1   
    39    19    53 1   
    40    20    21 1   
    41    20    54 1   
    42    20    55 1   
    43    21    22 1   
    44    21    56 1   
    45    21    57 1   
    46    22    23 1   
    47    23    24 2   
    48    23    25 2   
    49    23    26 1   
    50    26    27 ar  
    51    26    35 ar  
    52    27    28 ar  
    53    27    58 1   
    54    28    29 1   
    55    28    33 ar  
    56    29    30 1   
    57    30    31 2   
    58    30    32 1   
    59    32    33 1   
    60    32    59 1   
    61    33    34 ar  
    62    34    35 ar  
    63    34    60 1   
    64    35    61 1   
@<TRIPOS>SUBSTRUCTURE
     1 1KZ         1 TEMP              0 ****  ****    0 ROOT
