@<TRIPOS>MOLECULE
1L4
   57    60     1     0     0
SMALL
bcc


@<TRIPOS>ATOM
      1 NAA         -1.2870    -0.0190    -2.2220 n1         1 1L4      -0.383800
      2 CAF         -0.7190     0.0010    -1.2380 cg         1 1L4       0.232800
      3 CAX          0.0000     0.0000     0.0000 ca         1 1L4       0.027000
      4 CD2          1.3960     0.0000     0.0000 ca         1 1L4      -0.074000
      5 CAH         -0.6920     0.0060     1.2130 ca         1 1L4      -0.069000
      6 CAG          0.0070     0.0050     2.4030 ca         1 1L4      -0.093000
      7 CD1          1.3910    -0.0000     2.3950 ca         1 1L4      -0.073000
      8 CG           2.0830     0.0000     1.1960 ca         1 1L4      -0.095300
      9 CB           3.5900    -0.0000     1.1980 c3         1 1L4      -0.002100
     10 CA           4.1010     1.4420     1.2000 c3         1 1L4       0.138500
     11 C            5.6030     1.4430     1.0780 c          1 1L4       0.582100
     12 O            6.2810     1.9420     1.9500 o          1 1L4      -0.611100
     13 NBE          6.1910     0.8890    -0.0010 n          1 1L4      -0.169800
     14 CAR          5.4910     0.2570    -1.1330 c3         1 1L4       0.051500
     15 CAM          6.4810     0.3570    -2.3190 c3         1 1L4      -0.032900
     16 CAN          7.8410     0.1270    -1.6090 c3         1 1L4      -0.032900
     17 CAS          7.6400     0.8220    -0.2470 c3         1 1L4       0.051500
     18 N            3.7110     2.0960     2.4510 n7         1 1L4      -0.549100
     19 S1           3.3160     3.7040     2.4560 sy         1 1L4       1.042200
     20 OAC          2.9560     4.0250     3.7920 o          1 1L4      -0.575300
     21 OAD          4.3480     4.3740     1.7450 o          1 1L4      -0.575300
     22 CBB          1.8510     3.8830     1.4910 ca         1 1L4      -0.137500
     23 CAL          1.9430     4.1150     0.1320 ca         1 1L4      -0.020000
     24 CBA          0.7950     4.2580    -0.6330 ca         1 1L4      -0.076300
     25 CAP          0.9440     4.5200    -2.1100 c3         1 1L4       0.038900
     26 CAO         -0.3750     4.2350    -2.8260 c3         1 1L4       0.137800
     27 NAU         -1.4540     4.9430    -2.1190 n7         1 1L4      -0.574200
     28 CAQ         -1.7190     4.3040    -0.8270 c3         1 1L4       0.199100
     29 CBC         -0.4440     4.1640    -0.0370 ca         1 1L4      -0.061300
     30 CAY         -0.5340     3.9330     1.3290 ca         1 1L4       0.076900
     31 FAE         -1.7470     3.8440     1.9180 f          1 1L4      -0.125900
     32 CAK          0.6110     3.7880     2.0910 ca         1 1L4      -0.035000
     33 H1           1.9390     0.0000    -0.9370 ha         1 1L4       0.112000
     34 H2          -1.7750     0.0100     1.2200 ha         1 1L4       0.117000
     35 H3          -0.5280     0.0070     3.3440 ha         1 1L4       0.115000
     36 H4           1.9360    -0.0000     3.3320 ha         1 1L4       0.113000
     37 H5           3.9490    -0.5120     2.0830 hc         1 1L4       0.039200
     38 H6           3.9520    -0.5110     0.3140 hc         1 1L4       0.039200
     39 H7           3.6700     1.9780     0.3630 h1         1 1L4       0.044700
     40 H8           4.5790     0.7970    -1.3590 h1         1 1L4       0.021450
     41 H9           5.2760    -0.7810    -0.9100 h1         1 1L4       0.021450
     42 H10          6.2900    -0.4210    -3.0480 hc         1 1L4       0.025950
     43 H11          6.4440     1.3410    -2.7710 hc         1 1L4       0.025950
     44 H12          8.6450     0.5970    -2.1620 hc         1 1L4       0.025950
     45 H13          8.0270    -0.9320    -1.4740 hc         1 1L4       0.025950
     46 H14          8.0530     1.8230    -0.2800 h1         1 1L4       0.021450
     47 H15          8.1190     0.2450     0.5350 h1         1 1L4       0.021450
     48 H16          3.7340     1.5840     3.3100 hn         1 1L4       0.355800
     49 H19          2.9160     4.2030    -0.3350 ha         1 1L4       0.128000
     50 H20          1.7170     3.8750    -2.5120 hc         1 1L4       0.028700
     51 H21          1.2190     5.5570    -2.2630 hc         1 1L4       0.028700
     52 H22         -0.5710     3.1700    -2.8150 h1         1 1L4       0.013700
     53 H23         -0.3170     4.5900    -3.8480 h1         1 1L4       0.013700
     54 H24         -2.2850     4.9270    -2.6760 hn         1 1L4       0.259800
     55 H26         -2.4060     4.9270    -0.2680 h1         1 1L4       0.025700
     56 H27         -2.1240     3.3150    -1.0070 h1         1 1L4       0.025700
     57 H28          0.5370     3.6880     3.1670 ha         1 1L4       0.140000
@<TRIPOS>BOND
     1     1     2 3   
     2     2     3 1   
     3     3     4 ar  
     4     3     5 ar  
     5     4     8 ar  
     6     4    33 1   
     7     5     6 ar  
     8     5    34 1   
     9     6     7 ar  
    10     6    35 1   
    11     7     8 ar  
    12     7    36 1   
    13     8     9 1   
    14     9    10 1   
    15     9    37 1   
    16     9    38 1   
    17    10    11 1   
    18    10    18 1   
    19    10    39 1   
    20    11    12 2   
    21    11    13 1   
    22    13    14 1   
    23    13    17 1   
    24    14    15 1   
    25    14    40 1   
    26    14    41 1   
    27    15    16 1   
    28    15    42 1   
    29    15    43 1   
    30    16    17 1   
    31    16    44 1   
    32    16    45 1   
    33    17    46 1   
    34    17    47 1   
    35    18    19 1   
    36    18    48 1   
    37    19    20 2   
    38    19    21 2   
    39    19    22 1   
    40    22    23 ar  
    41    22    32 ar  
    42    23    24 ar  
    43    23    49 1   
    44    24    25 1   
    45    24    29 ar  
    46    25    26 1   
    47    25    50 1   
    48    25    51 1   
    49    26    27 1   
    50    26    52 1   
    51    26    53 1   
    52    27    28 1   
    53    27    54 1   
    54    28    29 1   
    55    28    55 1   
    56    28    56 1   
    57    29    30 ar  
    58    30    31 1   
    59    30    32 ar  
    60    32    57 1   
@<TRIPOS>SUBSTRUCTURE
     1 1L4         1 TEMP              0 ****  ****    0 ROOT
