@<TRIPOS>MOLECULE
molecule
   57    60     1     0     0
SMALL
bcc


@<TRIPOS>ATOM
      1 NAA         -1.2870    -0.0190    -2.2220 n1         1 1L4      -0.365800
      2 CAF         -0.7190     0.0010    -1.2380 cg         1 1L4       0.240800
      3 CAX          0.0000     0.0000     0.0000 ca         1 1L4      -0.018000
      4 CD2          1.3960     0.0000     0.0000 ca         1 1L4      -0.090000
      5 CAH         -0.6920     0.0060     1.2130 ca         1 1L4      -0.087000
      6 CAG          0.0070     0.0050     2.4030 ca         1 1L4      -0.126000
      7 CD1          1.3910    -0.0000     2.3950 ca         1 1L4      -0.096000
      8 CG           2.0830     0.0000     1.1960 ca         1 1L4      -0.091300
      9 CB           3.5900    -0.0000     1.1980 c3         1 1L4      -0.049100
     10 CA           4.1010     1.4420     1.2000 c3         1 1L4       0.185500
     11 C            5.6030     1.4430     1.0780 c          1 1L4       0.659100
     12 O            6.2810     1.9420     1.9500 o          1 1L4      -0.573100
     13 NBE          6.1910     0.8890    -0.0010 n          1 1L4      -0.498800
     14 CAR          5.4910     0.2570    -1.1330 c3         1 1L4       0.098000
     15 CAM          6.4810     0.3570    -2.3190 c3         1 1L4      -0.096900
     16 CAN          7.8410     0.1270    -1.6090 c3         1 1L4      -0.096900
     17 CAS          7.6400     0.8220    -0.2470 c3         1 1L4       0.098000
     18 N            3.7110     2.0960     2.4510 n7         1 1L4      -0.888100
     19 S1           3.3160     3.7040     2.4560 sy         1 1L4       1.426200
     20 OAC          2.9560     4.0250     3.7920 o          1 1L4      -0.622300
     21 OAD          4.3480     4.3740     1.7450 o          1 1L4      -0.622300
     22 CBB          1.8510     3.8830     1.4910 ca         1 1L4      -0.291500
     23 CAL          1.9430     4.1150     0.1320 ca         1 1L4      -0.053000
     24 CBA          0.7950     4.2580    -0.6330 ca         1 1L4      -0.062300
     25 CAP          0.9440     4.5200    -2.1100 c3         1 1L4      -0.029100
     26 CAO         -0.3750     4.2350    -2.8260 c3         1 1L4       0.150800
     27 NAU         -1.4540     4.9430    -2.1190 n7         1 1L4      -0.811200
     28 CAQ         -1.7190     4.3040    -0.8270 c3         1 1L4       0.198100
     29 CBC         -0.4440     4.1640    -0.0370 ca         1 1L4      -0.059300
     30 CAY         -0.5340     3.9330     1.3290 ca         1 1L4       0.111900
     31 FAE         -1.7470     3.8440     1.9180 f          1 1L4      -0.138900
     32 CAK          0.6110     3.7880     2.0910 ca         1 1L4      -0.070000
     33 H1           1.9390     0.0000    -0.9370 ha         1 1L4       0.137000
     34 H2          -1.7750     0.0100     1.2200 ha         1 1L4       0.146000
     35 H3          -0.5280     0.0070     3.3440 ha         1 1L4       0.145000
     36 H4           1.9360    -0.0000     3.3320 ha         1 1L4       0.138000
     37 H5           3.9490    -0.5120     2.0830 hc         1 1L4       0.068200
     38 H6           3.9520    -0.5110     0.3140 hc         1 1L4       0.068200
     39 H7           3.6700     1.9780     0.3630 h1         1 1L4       0.075700
     40 H8           4.5790     0.7970    -1.3590 h1         1 1L4       0.049450
     41 H9           5.2760    -0.7810    -0.9100 h1         1 1L4       0.049450
     42 H10          6.2900    -0.4210    -3.0480 hc         1 1L4       0.057950
     43 H11          6.4440     1.3410    -2.7710 hc         1 1L4       0.057950
     44 H12          8.6450     0.5970    -2.1620 hc         1 1L4       0.057950
     45 H13          8.0270    -0.9320    -1.4740 hc         1 1L4       0.057950
     46 H14          8.0530     1.8230    -0.2800 h1         1 1L4       0.049450
     47 H15          8.1190     0.2450     0.5350 h1         1 1L4       0.049450
     48 H16          3.7340     1.5840     3.3100 hn         1 1L4       0.461800
     49 H19          2.9160     4.2030    -0.3350 ha         1 1L4       0.152000
     50 H20          1.7170     3.8750    -2.5120 hc         1 1L4       0.061700
     51 H21          1.2190     5.5570    -2.2630 hc         1 1L4       0.061700
     52 H22         -0.5710     3.1700    -2.8150 h1         1 1L4       0.040700
     53 H23         -0.3170     4.5900    -3.8480 h1         1 1L4       0.040700
     54 H24         -2.2850     4.9270    -2.6760 hn         1 1L4       0.362800
     55 H26         -2.4060     4.9270    -0.2680 h1         1 1L4       0.057200
     56 H27         -2.1240     3.3150    -1.0070 h1         1 1L4       0.057200
     57 H28          0.5370     3.6880     3.1670 ha         1 1L4       0.166000
@<TRIPOS>BOND
     1     1     2 3   
     2    25    26 1   
     3    25    24 1   
     4     2     3 1   
     5    26    27 1   
     6    21    19 2   
     7    23    24 ar  
     8    23    22 ar  
     9    24    29 ar  
    10     3     4 ar  
    11     3     5 ar  
    12    27    28 1   
    13     4     8 ar  
    14    18    19 1   
    15    18    10 1   
    16    19    20 2   
    17    22    32 ar  
    18    29    28 1   
    19    29    30 ar  
    20     5     6 ar  
    21     8     9 1   
    22     8     7 ar  
    23     9    10 1   
    24    12    11 2   
    25    10    11 1   
    26    32    30 ar  
    27    30    31 1   
    28    11    13 1   
    29     6     7 ar  
    30    13    17 1   
    31    13    14 1   
    32    17    16 1   
    33    14    15 1   
    34    16    15 1   
    35    19    22 1   
    36     4    33 1   
    37     5    34 1   
    38     6    35 1   
    39     7    36 1   
    40     9    37 1   
    41     9    38 1   
    42    10    39 1   
    43    14    40 1   
    44    14    41 1   
    45    15    42 1   
    46    15    43 1   
    47    16    44 1   
    48    16    45 1   
    49    17    46 1   
    50    17    47 1   
    51    18    48 1   
    52    23    49 1   
    53    25    50 1   
    54    25    51 1   
    55    26    52 1   
    56    26    53 1   
    57    27    54 1   
    58    28    55 1   
    59    28    56 1   
    60    32    57 1   
@<TRIPOS>SUBSTRUCTURE
     1 1L4         1 TEMP              0 ****  ****    0 ROOT
