@<TRIPOS>MOLECULE
1L4
   58    61     1     0     0
SMALL
bcc


@<TRIPOS>ATOM
      1 NAA         -1.8250     1.5060    -0.8900 n1         1 1L4      -0.319800
      2 CAF         -1.0970     1.3400     0.0020 cg         1 1L4       0.208800
      3 CAX         -0.2100     1.1240     1.0920 ca         1 1L4      -0.001000
      4 CD2          1.1290     0.7970     0.8400 ca         1 1L4      -0.118000
      5 CAH         -0.6730     1.2310     2.4110 ca         1 1L4      -0.072000
      6 CAG          0.2050     0.9980     3.4700 ca         1 1L4      -0.118000
      7 CD1          1.5330     0.6550     3.2210 ca         1 1L4      -0.096000
      8 CG           2.0010     0.5490     1.9050 ca         1 1L4      -0.139300
      9 CB           3.4250     0.2180     1.6390 c3         1 1L4      -0.052100
     10 CA           3.6860    -1.2970     1.6610 c3         1 1L4       0.048500
     11 C            5.1920    -1.5020     1.3370 c          1 1L4       0.642100
     12 O            5.5180    -1.6480     0.1370 o          1 1L4      -0.608100
     13 NBE          6.0910    -1.4900     2.3530 n          1 1L4      -0.438800
     14 CAR          5.7850    -1.3890     3.7680 c3         1 1L4       0.086000
     15 CAM          7.1230    -1.4340     4.5260 c3         1 1L4      -0.089400
     16 CAN          8.2190    -1.6030     3.4780 c3         1 1L4      -0.089400
     17 CAS          7.5250    -1.6280     2.1090 c3         1 1L4       0.086000
     18 N            2.8520    -2.0420     0.6730 ny         1 1L4      -0.704900
     19 S1           2.2610    -3.7630     1.2290 sy         1 1L4       1.481200
     20 OAC          2.2920    -3.6640     2.6070 o          1 1L4      -0.570800
     21 OAD          3.1390    -4.5860     0.5540 o          1 1L4      -0.570800
     22 CBB          0.7910    -3.6780     0.5770 ca         1 1L4      -0.514500
     23 CAL          0.5550    -4.1360    -0.7340 ca         1 1L4      -0.009000
     24 CBA         -0.7220    -4.1380    -1.2910 ca         1 1L4      -0.058300
     25 CAP         -0.9290    -4.6650    -2.6680 c3         1 1L4      -0.049100
     26 CAO         -2.2710    -4.2330    -3.2620 c3         1 1L4       0.159800
     27 NAU         -3.3610    -4.3960    -2.3230 n7         1 1L4      -0.821200
     28 CAQ         -3.2020    -3.6390    -1.1010 c3         1 1L4       0.185100
     29 CBC         -1.8140    -3.6730    -0.5390 ca         1 1L4       0.023700
     30 CAY         -1.5910    -3.2120     0.7840 ca         1 1L4       0.113900
     31 FAE         -2.6290    -2.7640     1.5280 f          1 1L4      -0.107900
     32 CAK         -0.3060    -3.2200     1.3320 ca         1 1L4      -0.048000
     33 H1           1.4970     0.7740    -0.1990 ha         1 1L4       0.145000
     34 H2          -1.7220     1.5060     2.6090 ha         1 1L4       0.167000
     35 H3          -0.1530     1.0950     4.5080 ha         1 1L4       0.163000
     36 H4           2.2200     0.4810     4.0640 ha         1 1L4       0.147000
     37 H5           3.7520     0.6400     0.6490 hc         1 1L4       0.095200
     38 H6           4.0800     0.6810     2.4290 hc         1 1L4       0.095200
     39 H7           3.4280    -1.7000     2.6890 hx         1 1L4       0.127700
     40 H8           5.2420    -0.4260     3.9760 h1         1 1L4       0.060700
     41 H9           5.1240    -2.2440     4.0820 h1         1 1L4       0.060700
     42 H10          7.2670    -0.4900     5.1070 hc         1 1L4       0.070700
     43 H11          7.1250    -2.2870     5.2490 hc         1 1L4       0.070700
     44 H12          8.7830    -2.5550     3.6400 hc         1 1L4       0.070700
     45 H13          8.9500    -0.7590     3.5240 hc         1 1L4       0.070700
     46 H14          7.8710    -0.7830     1.4530 h1         1 1L4       0.060700
     47 H15          7.7180    -2.5930     1.5630 h1         1 1L4       0.060700
     48 H16          2.0510    -1.4560     0.4320 hn         1 1L4       0.463300
     49 H19          1.4010    -4.5280    -1.3320 ha         1 1L4       0.171000
     50 H20         -0.8810    -5.7890    -2.6260 hc         1 1L4       0.079700
     51 H21         -0.1070    -4.3150    -3.3470 hc         1 1L4       0.079700
     52 H22         -2.4940    -4.8830    -4.1560 h1         1 1L4       0.052200
     53 H23         -2.1740    -3.1680    -3.6270 h1         1 1L4       0.052200
     54 H24         -4.2430    -4.1860    -2.7520 hn         1 1L4       0.397800
     55 H26         -3.9110    -4.0820    -0.3380 h1         1 1L4       0.078700
     56 H27         -3.4770    -2.5440    -1.2150 h1         1 1L4       0.078700
     57 H28         -0.1620    -2.8850     2.3760 ha         1 1L4       0.178000
     58 H25          3.4190    -2.1480    -0.1820 hn         1 1L4       0.463300
@<TRIPOS>BOND
     1     1     2 3   
     2     2     3 1   
     3     3     4 ar  
     4     3     5 ar  
     5     4     8 ar  
     6     4    33 1   
     7     5     6 ar  
     8     5    34 1   
     9     6     7 ar  
    10     6    35 1   
    11     7     8 ar  
    12     7    36 1   
    13     8     9 1   
    14     9    10 1   
    15     9    37 1   
    16     9    38 1   
    17    10    11 1   
    18    10    18 1   
    19    10    39 1   
    20    11    12 2   
    21    11    13 1   
    22    13    14 1   
    23    13    17 1   
    24    14    15 1   
    25    14    40 1   
    26    14    41 1   
    27    15    16 1   
    28    15    42 1   
    29    15    43 1   
    30    16    17 1   
    31    16    44 1   
    32    16    45 1   
    33    17    46 1   
    34    17    47 1   
    35    18    19 1   
    36    18    48 1   
    37    18    58 1   
    38    19    20 2   
    39    19    21 2   
    40    19    22 1   
    41    22    23 ar  
    42    22    32 ar  
    43    23    24 ar  
    44    23    49 1   
    45    24    25 1   
    46    24    29 ar  
    47    25    26 1   
    48    25    50 1   
    49    25    51 1   
    50    26    27 1   
    51    26    52 1   
    52    26    53 1   
    53    27    28 1   
    54    27    54 1   
    55    28    29 1   
    56    28    55 1   
    57    28    56 1   
    58    29    30 ar  
    59    30    31 1   
    60    30    32 ar  
    61    32    57 1   
@<TRIPOS>SUBSTRUCTURE
     1 1L4         1 TEMP              0 ****  ****    0 ROOT
