@<TRIPOS>MOLECULE
1L5
   22    22     1     0     0
SMALL
bcc


@<TRIPOS>ATOM
      1 C1          0.0290    0.0920    0.1290 ce        1 1L5      0.159600
      2 C2          1.4790    0.0310    0.1010 ca        1 1L5     -0.145800
      3 C3          2.2350    0.7350    1.0580 ca        1 1L5     -0.074500
      4 C4          3.6240    0.6760    1.0370 ca        1 1L5     -0.130500
      5 C5          4.2820   -0.0740    0.0600 ca        1 1L5     -0.060000
      6 C6          3.5430   -0.7680   -0.9000 ca        1 1L5     -0.130500
      7 C7          2.1520   -0.7220   -0.8800 ca        1 1L5     -0.074500
      8 C8         -0.7000   -0.9540   -0.3620 c2        1 1L5     -0.171900
      9 O1         -2.0820   -0.9800   -0.1430 os        1 1L5     -0.077400
     10 N          -2.9350   -0.8010   -1.1240 n3        1 1L5      0.127500
     11 O          -2.5870   -0.6100   -2.2190 o         1 1L5     -0.073000
     12 C          -0.6070    1.2820    0.7380 c3        1 1L5     -0.108900
     13 H1          1.7290    1.3260    1.8370 ha        1 1L5      0.140000
     14 H2          4.2070    1.2230    1.7960 ha        1 1L5      0.160000
     15 H3          5.3840   -0.1160    0.0450 ha        1 1L5      0.161000
     16 H4          4.0610   -1.3540   -1.6760 ha        1 1L5      0.160000
     17 H5          1.5840   -1.2600   -1.6540 ha        1 1L5      0.140000
     18 H6         -0.3210   -1.8660   -0.8460 h4        1 1L5      0.202000
     19 H7         -1.6880    1.3610    0.4700 hc        1 1L5      0.081367
     20 H8         -0.5310    1.2180    1.8570 hc        1 1L5      0.081367
     21 H9         -0.0860    2.2180    0.4090 hc        1 1L5      0.081367
     22 HN1        -3.9350   -0.9220   -0.8180 hn        1 1L5      0.552800
@<TRIPOS>BOND
     1    1    2 1
     2    1    8 2
     3    1   12 1
     4    2    3 ar
     5    2    7 ar
     6    3    4 ar
     7    3   13 1
     8    4    5 ar
     9    4   14 1
    10    5    6 ar
    11    5   15 1
    12    6    7 ar
    13    6   16 1
    14    7   17 1
    15    8    9 1
    16    8   18 1
    17    9   10 1
    18   10   11 1
    19   10   22 1
    20   12   19 1
    21   12   20 1
    22   12   21 1
@<TRIPOS>SUBSTRUCTURE
     1 1L5         1 TEMP              0 ****  ****    0 ROOT
