@<TRIPOS>MOLECULE
1L6
   59    62     1     0     0
SMALL
bcc


@<TRIPOS>ATOM
      1 N3           0.0000     0.0000     0.0000 nc         1 1L6      -0.627800
      2 C7          -2.1590     1.2420     2.5010 c3         1 1L6      -0.006600
      3 C6          -2.1650    -1.2570     2.4880 c3         1 1L6      -0.006600
      4 C9          -4.2400     0.0050     0.8510 c3         1 1L6      -0.010100
      5 C13          0.2150    -0.2700     7.6050 ca         1 1L6      -0.093500
      6 C20          0.0120     0.4880    10.5710 cc         1 1L6      -0.445600
      7 C21          0.3480     0.2350    11.8500 cd         1 1L6       0.328200
      8 C8          -2.7720     0.0040     0.4190 c3         1 1L6      -0.023400
      9 C18          0.3030    -0.1640     6.2350 ca         1 1L6      -0.074000
     10 C16          2.3780     1.0600     6.4710 ca         1 1L6      -0.074000
     11 C26          3.2070     0.0110     1.7700 c          1 1L6       0.659100
     12 O31          4.0610    -0.5990     1.1520 o          1 1L6      -0.678500
     13 C1           1.8210     0.0000     1.3020 cc         1 1L6      -0.310900
     14 N4           1.4010     0.0000     0.0000 na         1 1L6       0.556400
     15 C10          2.2620    -0.0010    -1.1840 c3         1 1L6      -0.035700
     16 C11          2.5620    -1.4440    -1.5970 c3         1 1L6       0.205400
     17 O25          3.4020    -1.4450    -2.7530 oh         1 1L6      -0.586800
     18 N27          3.5430     0.6880     2.8790 ns         1 1L6      -0.161900
     19 C28          2.5640     1.4840     3.6100 c3         1 1L6      -0.030300
     20 C29          1.4870     0.6190     4.1920 ce         1 1L6       0.352900
     21 N30          0.6400    -0.0290     3.4590 nf         1 1L6      -0.369100
     22 C12          0.6800    -0.0120     2.1000 cd         1 1L6      -0.111900
     23 C2          -0.4310    -0.0060     1.2340 cd         1 1L6       0.403600
     24 C5          -1.8770    -0.0050     1.6580 c3         1 1L6      -0.075300
     25 C17          1.3880     0.5030     5.6550 ca         1 1L6      -0.120900
     26 C15          2.2850     0.9430     7.8400 ca         1 1L6      -0.093500
     27 C14          1.2020     0.2840     8.4120 ca         1 1L6      -0.171200
     28 N19          1.1060     0.1790     9.8030 na         1 1L6       0.411000
     29 C23          2.0780    -0.2490    10.6510 cc         1 1L6       0.187800
     30 C24          3.4610    -0.6950    10.2500 c3         1 1L6       0.005600
     31 N22          1.6120    -0.2120    11.8690 nd         1 1L6      -0.613000
     32 H1          -1.3880     1.3520     3.2530 hc         1 1L6       0.013033
     33 H2          -3.1230     1.1390     2.9850 hc         1 1L6       0.013033
     34 H3          -2.1670     2.1160     1.8610 hc         1 1L6       0.013033
     35 H4          -1.2420    -1.6220     2.9230 hc         1 1L6       0.013033
     36 H5          -2.5910    -2.0220     1.8510 hc         1 1L6       0.013033
     37 H6          -2.8650    -1.0140     3.2780 hc         1 1L6       0.013033
     38 H7          -4.8720    -0.1410    -0.0170 hc         1 1L6       0.004700
     39 H8          -4.4800     0.9540     1.3150 hc         1 1L6       0.004700
     40 H9          -4.4090    -0.7970     1.5600 hc         1 1L6       0.004700
     41 H10         -0.6260    -0.7840     8.0540 ha         1 1L6       0.121000
     42 H11         -0.9410     0.8610    10.2150 h4         1 1L6       0.155000
     43 H12         -0.2910     0.3710    12.7140 h4         1 1L6       0.003100
     44 H13         -2.5680     0.8910    -0.1680 hc         1 1L6       0.025200
     45 H14         -2.5720    -0.8780    -0.1770 hc         1 1L6       0.025200
     46 H15         -0.4670    -0.5960     5.6060 ha         1 1L6       0.122500
     47 H16          3.2210     1.5750     6.0270 ha         1 1L6       0.122500
     48 H17          3.1900     0.5090    -0.9570 h1         1 1L6       0.052200
     49 H18          1.7590     0.5090    -1.9970 h1         1 1L6       0.052200
     50 H19          1.6340    -1.9540    -1.8240 h1         1 1L6       0.006200
     51 H20          3.0640    -1.9550    -0.7840 h1         1 1L6       0.006200
     52 H21          3.3330    -2.2770    -3.1910 ho         1 1L6       0.397000
     53 H22          4.4860     0.6460     3.2120 hn         1 1L6       0.189500
     54 H23          2.1150     2.2000     2.9320 h1         1 1L6       0.040200
     55 H24          3.0650     2.0130     4.4120 h1         1 1L6       0.040200
     56 H27          3.0510     1.3730     8.4730 ha         1 1L6       0.121000
     57 H28          3.3970    -1.3270     9.3730 hc         1 1L6       0.012700
     58 H29          4.0690     0.1730    10.0260 hc         1 1L6       0.012700
     59 H30          3.9110    -1.2510    11.0630 hc         1 1L6       0.012700
@<TRIPOS>BOND
     1     1    14 1   
     2     1    23 2   
     3     2    24 1   
     4     2    32 1   
     5     2    33 1   
     6     2    34 1   
     7     3    24 1   
     8     3    35 1   
     9     3    36 1   
    10     3    37 1   
    11     4     8 1   
    12     4    38 1   
    13     4    39 1   
    14     4    40 1   
    15     5     9 ar  
    16     5    27 ar  
    17     5    41 1   
    18     6     7 2   
    19     6    28 1   
    20     6    42 1   
    21     7    31 1   
    22     7    43 1   
    23     8    24 1   
    24     8    44 1   
    25     8    45 1   
    26     9    25 ar  
    27     9    46 1   
    28    10    25 ar  
    29    10    26 ar  
    30    10    47 1   
    31    11    12 2   
    32    11    13 1   
    33    11    18 1   
    34    13    14 1   
    35    13    22 2   
    36    14    15 1   
    37    15    16 1   
    38    15    48 1   
    39    15    49 1   
    40    16    17 1   
    41    16    50 1   
    42    16    51 1   
    43    17    52 1   
    44    18    19 1   
    45    18    53 1   
    46    19    20 1   
    47    19    54 1   
    48    19    55 1   
    49    20    21 2   
    50    20    25 1   
    51    21    22 1   
    52    22    23 1   
    53    23    24 1   
    54    26    27 ar  
    55    26    56 1   
    56    27    28 1   
    57    28    29 1   
    58    29    30 1   
    59    29    31 2   
    60    30    57 1   
    61    30    58 1   
    62    30    59 1   
@<TRIPOS>SUBSTRUCTURE
     1 1L6         1 TEMP              0 ****  ****    0 ROOT
