@<TRIPOS>MOLECULE
1L6
   59    62     1     0     0
SMALL
bcc


@<TRIPOS>ATOM
      1 N3          -0.0260     0.0690    -0.0660 nc         1 1L6      -0.490800
      2 C7          -2.7930    -0.1040     0.5210 c3         1 1L6      -0.086600
      3 C6          -2.1330     0.6540     2.7740 c3         1 1L6      -0.086600
      4 C9          -1.8040    -2.8590     1.2030 c3         1 1L6      -0.091100
      5 C13          3.0470    -1.1020     7.5690 ca         1 1L6      -0.146500
      6 C20          1.1850    -0.5770    10.7110 cc         1 1L6      -0.250600
      7 C21          1.4580    -1.2150    11.9280 cd         1 1L6       0.301200
      8 C8          -2.0260    -1.7700     2.2200 c3         1 1L6      -0.073400
      9 C18          3.0120    -0.7940     6.2130 ca         1 1L6      -0.087500
     10 C16          0.6640    -0.2500     6.3820 ca         1 1L6      -0.087500
     11 C26          3.3250    -0.0090     1.4260 c          1 1L6       0.742100
     12 O31          4.1620    -0.3750     0.5710 o          1 1L6      -0.662500
     13 C1           1.8780     0.0300     1.1510 cc         1 1L6      -0.185900
     14 N4           1.3030     0.1920    -0.1150 na         1 1L6       0.139400
     15 C10          2.0380     0.3830    -1.3580 c3         1 1L6       0.007300
     16 C11          2.3100    -0.9110    -2.1470 c3         1 1L6       0.124400
     17 O25          3.6950    -1.1130    -2.3100 oh         1 1L6      -0.603800
     18 N27          3.7640     0.3520     2.6820 ns         1 1L6      -0.557900
     19 C28          2.9300     0.8960     3.7100 c3         1 1L6       0.015700
     20 C29          1.8060    -0.0260     4.1730 ce         1 1L6       0.441900
     21 N30          0.8500    -0.4750     3.4170 nf         1 1L6      -0.508100
     22 C12          0.8050    -0.2020     2.0620 cd         1 1L6      -0.007900
     23 C2          -0.3960    -0.1740     1.2250 cd         1 1L6       0.359600
     24 C5          -1.8180    -0.3540     1.6690 c3         1 1L6      -0.067300
     25 C17          1.8270    -0.3600     5.6100 ca         1 1L6      -0.141900
     26 C15          0.6840    -0.5540     7.7390 ca         1 1L6      -0.146500
     27 C14          1.8800    -0.9870     8.3540 ca         1 1L6       0.027800
     28 N19          1.8990    -1.2820     9.7290 na         1 1L6      -0.147000
     29 C23          2.5720    -2.3400    10.3960 cc         1 1L6       0.419800
     30 C24          3.4270    -3.3440     9.7140 c3         1 1L6      -0.127400
     31 N22          2.3090    -2.2990    11.7250 nd         1 1L6      -0.664000
     32 H1          -2.7160     0.9520     0.1680 hc         1 1L6       0.040200
     33 H2          -3.8370    -0.2880     0.8720 hc         1 1L6       0.040200
     34 H3          -2.5850    -0.7840    -0.3390 hc         1 1L6       0.040200
     35 H4          -1.5970     0.4000     3.7180 hc         1 1L6       0.040200
     36 H5          -1.8410     1.6830     2.4550 hc         1 1L6       0.040200
     37 H6          -3.2300     0.6450     2.9840 hc         1 1L6       0.040200
     38 H7          -1.8380    -3.8570     1.7030 hc         1 1L6       0.034367
     39 H8          -2.5920    -2.8370     0.4120 hc         1 1L6       0.034367
     40 H9          -0.8080    -2.7440     0.7100 hc         1 1L6       0.034367
     41 H10          3.9950    -1.4310     8.0240 ha         1 1L6       0.150000
     42 H11          0.5780     0.2940    10.4710 h4         1 1L6       0.180000
     43 H12          1.0960    -0.9590    12.9240 h4         1 1L6       0.045100
     44 H13         -3.0780    -1.8330     2.6090 hc         1 1L6       0.049700
     45 H14         -1.3390    -1.9290     3.0910 hc         1 1L6       0.049700
     46 H15          3.9290    -0.9030     5.6120 ha         1 1L6       0.146500
     47 H16         -0.2800     0.0720     5.9120 ha         1 1L6       0.146500
     48 H17          1.4480     1.0930    -2.0050 h1         1 1L6       0.087700
     49 H18          3.0240     0.8640    -1.0930 h1         1 1L6       0.087700
     50 H19          1.8360    -1.8080    -1.6670 h1         1 1L6       0.059200
     51 H20          1.9150    -0.8020    -3.1930 h1         1 1L6       0.059200
     52 H21          4.0830    -1.2330    -1.4310 ho         1 1L6       0.428000
     53 H22          4.7250     0.1970     2.8890 hn         1 1L6       0.331500
     54 H23          2.4470     1.8490     3.3350 h1         1 1L6       0.070700
     55 H24          3.5830     1.1640     4.5880 h1         1 1L6       0.070700
     56 H27         -0.2420    -0.4630     8.3280 ha         1 1L6       0.150000
     57 H28          3.0620    -3.5420     8.6760 hc         1 1L6       0.061033
     58 H29          3.4170    -4.3030    10.2890 hc         1 1L6       0.061033
     59 H30          4.4810    -2.9700     9.6650 hc         1 1L6       0.061033
@<TRIPOS>BOND
     1     1    14 1   
     2     1    23 2   
     3     2    24 1   
     4     2    32 1   
     5     2    33 1   
     6     2    34 1   
     7     3    24 1   
     8     3    35 1   
     9     3    36 1   
    10     3    37 1   
    11     4     8 1   
    12     4    38 1   
    13     4    39 1   
    14     4    40 1   
    15     5     9 ar  
    16     5    27 ar  
    17     5    41 1   
    18     6     7 2   
    19     6    28 1   
    20     6    42 1   
    21     7    31 1   
    22     7    43 1   
    23     8    24 1   
    24     8    44 1   
    25     8    45 1   
    26     9    25 ar  
    27     9    46 1   
    28    10    25 ar  
    29    10    26 ar  
    30    10    47 1   
    31    11    12 2   
    32    11    13 1   
    33    11    18 1   
    34    13    14 1   
    35    13    22 2   
    36    14    15 1   
    37    15    16 1   
    38    15    48 1   
    39    15    49 1   
    40    16    17 1   
    41    16    50 1   
    42    16    51 1   
    43    17    52 1   
    44    18    19 1   
    45    18    53 1   
    46    19    20 1   
    47    19    54 1   
    48    19    55 1   
    49    20    21 2   
    50    20    25 1   
    51    21    22 1   
    52    22    23 1   
    53    23    24 1   
    54    26    27 ar  
    55    26    56 1   
    56    27    28 1   
    57    28    29 1   
    58    29    30 1   
    59    29    31 2   
    60    30    57 1   
    61    30    58 1   
    62    30    59 1   
@<TRIPOS>SUBSTRUCTURE
     1 1L6         1 TEMP              0 ****  ****    0 ROOT
