@<TRIPOS>MOLECULE
molecule
   59    62     1     0     0
SMALL
bcc


@<TRIPOS>ATOM
      1 N3           0.0000     0.0000     0.0000 nc         1 1L6      -0.487800
      2 C7          -2.1590     1.2420     2.5010 c3         1 1L6      -0.082100
      3 C6          -2.1650    -1.2570     2.4880 c3         1 1L6      -0.082100
      4 C9          -4.2400     0.0050     0.8510 c3         1 1L6      -0.096100
      5 C13          0.2150    -0.2700     7.6050 ca         1 1L6      -0.136500
      6 C20          0.0120     0.4880    10.5710 cc         1 1L6      -0.269600
      7 C21          0.3480     0.2350    11.8500 cd         1 1L6       0.317200
      8 C8          -2.7720     0.0040     0.4190 c3         1 1L6      -0.072400
      9 C18          0.3030    -0.1640     6.2350 ca         1 1L6      -0.089500
     10 C16          2.3780     1.0600     6.4710 ca         1 1L6      -0.089500
     11 C26          3.2070     0.0110     1.7700 c          1 1L6       0.731100
     12 O31          4.0610    -0.5990     1.1520 o          1 1L6      -0.633500
     13 C1           1.8210     0.0000     1.3020 cc         1 1L6      -0.143900
     14 N4           1.4010     0.0000     0.0000 na         1 1L6       0.103400
     15 C10          2.2620    -0.0010    -1.1840 c3         1 1L6       0.073300
     16 C11          2.5620    -1.4440    -1.5970 c3         1 1L6       0.119400
     17 O25          3.4020    -1.4450    -2.7530 oh         1 1L6      -0.608800
     18 N27          3.5430     0.6880     2.8790 ns         1 1L6      -0.560900
     19 C28          2.5640     1.4840     3.6100 c3         1 1L6       0.015700
     20 C29          1.4870     0.6190     4.1920 ce         1 1L6       0.439900
     21 N30          0.6400    -0.0290     3.4590 nf         1 1L6      -0.526100
     22 C12          0.6800    -0.0120     2.1000 cd         1 1L6      -0.049900
     23 C2          -0.4310    -0.0060     1.2340 cd         1 1L6       0.382600
     24 C5          -1.8770    -0.0050     1.6580 c3         1 1L6      -0.078300
     25 C17          1.3880     0.5030     5.6550 ca         1 1L6      -0.133900
     26 C15          2.2850     0.9430     7.8400 ca         1 1L6      -0.136500
     27 C14          1.2020     0.2840     8.4120 ca         1 1L6       0.011800
     28 N19          1.1060     0.1790     9.8030 na         1 1L6      -0.119000
     29 C23          2.0780    -0.2490    10.6510 cc         1 1L6       0.411800
     30 C24          3.4610    -0.6950    10.2500 c3         1 1L6      -0.106400
     31 N22          1.6120    -0.2120    11.8690 nd         1 1L6      -0.691000
     32 H1          -1.3880     1.3520     3.2530 hc         1 1L6       0.042200
     33 H2          -3.1230     1.1390     2.9850 hc         1 1L6       0.042200
     34 H3          -2.1670     2.1160     1.8610 hc         1 1L6       0.042200
     35 H4          -1.2420    -1.6220     2.9230 hc         1 1L6       0.042200
     36 H5          -2.5910    -2.0220     1.8510 hc         1 1L6       0.042200
     37 H6          -2.8650    -1.0140     3.2780 hc         1 1L6       0.042200
     38 H7          -4.8720    -0.1410    -0.0170 hc         1 1L6       0.034367
     39 H8          -4.4800     0.9540     1.3150 hc         1 1L6       0.034367
     40 H9          -4.4090    -0.7970     1.5600 hc         1 1L6       0.034367
     41 H10         -0.6260    -0.7840     8.0540 ha         1 1L6       0.148000
     42 H11         -0.9410     0.8610    10.2150 h4         1 1L6       0.176000
     43 H12         -0.2910     0.3710    12.7140 h4         1 1L6       0.043100
     44 H13         -2.5680     0.8910    -0.1680 hc         1 1L6       0.051200
     45 H14         -2.5720    -0.8780    -0.1770 hc         1 1L6       0.051200
     46 H15         -0.4670    -0.5960     5.6060 ha         1 1L6       0.150500
     47 H16          3.2210     1.5750     6.0270 ha         1 1L6       0.150500
     48 H17          3.1900     0.5090    -0.9570 h1         1 1L6       0.083700
     49 H18          1.7590     0.5090    -1.9970 h1         1 1L6       0.083700
     50 H19          1.6340    -1.9540    -1.8240 h1         1 1L6       0.043700
     51 H20          3.0640    -1.9550    -0.7840 h1         1 1L6       0.043700
     52 H21          3.3330    -2.2770    -3.1910 ho         1 1L6       0.411000
     53 H22          4.4860     0.6460     3.2120 hn         1 1L6       0.338500
     54 H23          2.1150     2.2000     2.9320 h1         1 1L6       0.069200
     55 H24          3.0650     2.0130     4.4120 h1         1 1L6       0.069200
     56 H27          3.0510     1.3730     8.4730 ha         1 1L6       0.148000
     57 H28          3.3970    -1.3270     9.3730 hc         1 1L6       0.055700
     58 H29          4.0690     0.1730    10.0260 hc         1 1L6       0.055700
     59 H30          3.9110    -1.2510    11.0630 hc         1 1L6       0.055700
@<TRIPOS>BOND
     1    12    11 2   
     2    30    29 1   
     3    18    11 1   
     4    18    19 1   
     5    11    13 1   
     6    17    16 1   
     7     9     5 ar  
     8     9    25 ar  
     9    19    20 1   
    10     5    27 ar  
    11    29    31 2   
    12    29    28 1   
    13    16    15 1   
    14    15    14 1   
    15    31     7 1   
    16    13    14 1   
    17    13    22 2   
    18    25    20 1   
    19    25    10 ar  
    20    20    21 2   
    21    27    28 1   
    22    27    26 ar  
    23    28     6 1   
    24    14     1 1   
    25    22    21 1   
    26    22    23 1   
    27     7     6 2   
    28    10    26 ar  
    29     1    23 2   
    30    23    24 1   
    31    24     3 1   
    32    24     8 1   
    33    24     2 1   
    34     4     8 1   
    35     2    32 1   
    36     2    33 1   
    37     2    34 1   
    38     3    35 1   
    39     3    36 1   
    40     3    37 1   
    41     4    38 1   
    42     4    39 1   
    43     4    40 1   
    44     5    41 1   
    45     6    42 1   
    46     7    43 1   
    47     8    44 1   
    48     8    45 1   
    49     9    46 1   
    50    10    47 1   
    51    15    48 1   
    52    15    49 1   
    53    16    50 1   
    54    16    51 1   
    55    17    52 1   
    56    18    53 1   
    57    19    54 1   
    58    19    55 1   
    59    26    56 1   
    60    30    57 1   
    61    30    58 1   
    62    30    59 1   
@<TRIPOS>SUBSTRUCTURE
     1 1L6         1 TEMP              0 ****  ****    0 ROOT
