@<TRIPOS>MOLECULE
molecule
   33    34     1     0     0
SMALL
bcc


@<TRIPOS>ATOM
      1 C10          0.0000     0.0000     0.0000 ce         1 1L7      -0.097900
      2 N12         -1.3000     0.0010    -2.2150 n1         1 1L7      -0.363800
      3 C13          1.3630     0.0000     0.0000 cf         1 1L7       0.030800
      4 C15          3.3820     0.3870    -1.4240 ca         1 1L7      -0.231300
      5 C01         -6.3430    -1.1760     1.8880 ca         1 1L7      -0.130000
      6 C02         -7.0190     0.0250     1.7770 ca         1 1L7      -0.117000
      7 C03         -6.3360     1.2180     1.9110 ca         1 1L7      -0.130000
      8 C04         -4.9760     1.2120     2.1590 ca         1 1L7      -0.110500
      9 C05         -4.2990     0.0120     2.2710 ca         1 1L7      -0.123300
     10 C06         -4.9830    -1.1820     2.1410 ca         1 1L7      -0.110500
     11 C07         -2.8170     0.0050     2.5460 c3         1 1L7       0.162300
     12 N08         -2.0850     0.0050     1.2770 ns         1 1L7      -0.570900
     13 C09         -0.7370     0.0000     1.2760 c          1 1L7       0.678300
     14 C11         -0.7160     0.0060    -1.2400 cg         1 1L7       0.199500
     15 C14          2.0980    -0.1570    -1.2630 ca         1 1L7      -0.069800
     16 C16          4.0320     0.2180    -2.6300 ca         1 1L7       0.422700
     17 N17          3.4640    -0.4410    -3.6200 nb         1 1L7      -0.678000
     18 C18          2.2600    -0.9680    -3.5130 ca         1 1L7       0.422700
     19 C19          1.5360    -0.8550    -2.3430 ca         1 1L7      -0.231300
     20 O20         -0.1290    -0.0050     2.3300 o          1 1L7      -0.608100
     21 H2           1.9050     0.0000     0.9380 ha         1 1L7       0.177000
     22 H4           3.8150     0.9950    -0.6390 ha         1 1L7       0.151000
     23 H5          -6.8780    -2.1110     1.7830 ha         1 1L7       0.133500
     24 H6          -8.0840     0.0300     1.5780 ha         1 1L7       0.132000
     25 H7          -6.8660     2.1590     1.8230 ha         1 1L7       0.133500
     26 H8          -4.4400     2.1480     2.2640 ha         1 1L7       0.134500
     27 H9          -4.4530    -2.1230     2.2290 ha         1 1L7       0.134500
     28 H10         -2.5620     0.8880     3.1190 h1         1 1L7       0.061200
     29 H11         -2.5710    -0.8760     3.1250 h1         1 1L7       0.061200
     30 H12         -2.5830    -0.0620     0.4120 hn         1 1L7       0.325500
     31 H13          5.0240     0.6310    -2.7730 h4         1 1L7       0.029600
     32 H14          1.8260    -1.5030    -4.3500 h4         1 1L7       0.029600
     33 H15          0.5190    -1.2220    -2.2810 ha         1 1L7       0.151000
@<TRIPOS>BOND
     1    16     4 ar
     2    16    17 ar
     3     4    15 ar
     4    17    18 ar
     5    18    19 ar
     6    15    19 ar
     7    15     3 1
     8     3     1 2
     9    20    13 2
    10     1    13 1
    11     1    14 1
    12    13    12 1
    13    12    11 1
    14    11     9 1
    15    14     2 3
    16     9    10 ar
    17     9     8 ar
    18    10     5 ar
    19     8     7 ar
    20     5     6 ar
    21     7     6 ar
    22     3    21 1
    23     4    22 1
    24     5    23 1
    25     6    24 1
    26     7    25 1
    27     8    26 1
    28    10    27 1
    29    11    28 1
    30    11    29 1
    31    12    30 1
    32    16    31 1
    33    18    32 1
    34    19    33 1
@<TRIPOS>SUBSTRUCTURE
     1 1L7         1 TEMP              0 ****  ****    0 ROOT
