@<TRIPOS>MOLECULE
1L7
   34    35     1     0     0
SMALL
bcc


@<TRIPOS>ATOM
      1 C10         -0.5750    -0.2650    -1.5910 ce         1 1L7      -0.147900
      2 N12         -2.3070    -1.7320    -2.8310 n1         1 1L7      -0.267800
      3 C13          0.7210    -0.2970    -2.0040 cf         1 1L7       0.145800
      4 C15          1.8740     1.7930    -1.2320 ca         1 1L7      -0.197800
      5 C01         -5.2200    -1.3340     3.3810 ca         1 1L7      -0.118000
      6 C02         -6.4330    -0.7630     2.9910 ca         1 1L7      -0.075000
      7 C03         -6.4490     0.2910     2.0750 ca         1 1L7      -0.118000
      8 C04         -5.2540     0.7740     1.5460 ca         1 1L7      -0.099000
      9 C05         -4.0370     0.1990     1.9340 ca         1 1L7      -0.194300
     10 C06         -4.0220    -0.8560     2.8540 ca         1 1L7      -0.099000
     11 C07         -2.7570     0.7410     1.4030 c3         1 1L7       0.180100
     12 N08         -2.3750     0.0370     0.1310 ny         1 1L7      -0.676800
     13 C09         -1.0810     0.5420    -0.4770 c          1 1L7       0.573300
     14 C11         -1.5360    -1.0710    -2.2630 cg         1 1L7       0.125500
     15 C14          1.8710     0.4150    -1.4890 ca         1 1L7      -0.125800
     16 C16          3.0700     2.3890    -0.7850 ca         1 1L7       0.404700
     17 N17          4.2100     1.7080    -0.5810 nb         1 1L7      -0.610000
     18 C18          4.2000     0.3840    -0.8380 ca         1 1L7       0.404700
     19 C19          3.0680    -0.3050    -1.3060 ca         1 1L7      -0.197800
     20 O20         -0.6100     1.5520     0.0250 o          1 1L7      -0.418100
     21 H2           0.9640    -0.9960    -2.8390 ha         1 1L7       0.180000
     22 H4           0.9800     2.4120    -1.3910 ha         1 1L7       0.158500
     23 H5          -5.2080    -2.1600     4.1100 ha         1 1L7       0.160500
     24 H6          -7.3800    -1.1400     3.4120 ha         1 1L7       0.162000
     25 H7          -7.4060     0.7470     1.7760 ha         1 1L7       0.160500
     26 H8          -5.2700     1.6180     0.8390 ha         1 1L7       0.139000
     27 H9          -3.0670    -1.2980     3.1780 ha         1 1L7       0.139000
     28 H10         -1.9120     0.5980     2.1360 hx         1 1L7       0.115200
     29 H11         -2.8410     1.8430     1.1710 hx         1 1L7       0.115200
     30 H12         -2.2850    -0.9690     0.3170 hn         1 1L7       0.462300
     31 H13          3.1120     3.4760    -0.5790 h4         1 1L7       0.050100
     32 H14          5.1560    -0.1480    -0.6680 h4         1 1L7       0.050100
     33 H15          3.1230    -1.3820    -1.5160 ha         1 1L7       0.158500
     34 H082        -3.1300     0.1580    -0.5570 hn         1 1L7       0.462300
@<TRIPOS>BOND
     1     1     3 2   
     2     1    13 1   
     3     1    14 1   
     4     2    14 3   
     5     3    15 1   
     6     3    21 1   
     7     4    15 ar  
     8     4    16 ar  
     9     4    22 1   
    10     5     6 ar  
    11     5    10 ar  
    12     5    23 1   
    13     6     7 ar  
    14     6    24 1   
    15     7     8 ar  
    16     7    25 1   
    17     8     9 ar  
    18     8    26 1   
    19     9    10 ar  
    20     9    11 1   
    21    10    27 1   
    22    11    12 1   
    23    11    28 1   
    24    11    29 1   
    25    12    13 1   
    26    12    30 1   
    27    12    34 1   
    28    13    20 2   
    29    15    19 ar  
    30    16    17 ar  
    31    16    31 1   
    32    17    18 ar  
    33    18    19 ar  
    34    18    32 1   
    35    19    33 1   
@<TRIPOS>SUBSTRUCTURE
     1 1L7         1 TEMP              0 ****  ****    0 ROOT
