@<TRIPOS>MOLECULE
1L7
   33    35     1     0     0
SMALL
bcc


@<TRIPOS>ATOM
      1 C10          0.0000     0.0000     0.0000 c2         1 1L7      -0.223000
      2 N12         -1.2980     0.0230    -2.2160 n1         1 1L7      -0.035000
      3 C13          1.3630     0.0000     0.0000 c2         1 1L7      -0.006000
      4 C15          3.3820     0.3870    -1.4240 c2         1 1L7      -0.170500
      5 C01         -6.3430    -1.1760     1.8880 ca         1 1L7      -0.107000
      6 C02         -7.0190     0.0250     1.7770 ca         1 1L7      -0.090000
      7 C03         -6.3360     1.2180     1.9110 ca         1 1L7      -0.107000
      8 C04         -4.9760     1.2120     2.1590 ca         1 1L7      -0.078000
      9 C05         -4.2990     0.0120     2.2710 ca         1 1L7      -0.120000
     10 C06         -4.9830    -1.1820     2.1410 ca         1 1L7      -0.078000
     11 C07         -2.8170     0.0050     2.5460 c3         1 1L7      -0.280000
     12 N08         -2.0850     0.0050     1.2770 ny         1 1L7       0.008000
     13 C09         -0.7370     0.0000     1.2760 c2         1 1L7       0.279000
     14 C11         -0.7160     0.0060    -1.2400 c1         1 1L7      -0.130000
     15 C14          2.0980    -0.1570    -1.2630 c2         1 1L7       0.094000
     16 C16          4.0320     0.2180    -2.6300 c2         1 1L7      -0.034000
     17 N17          3.4640    -0.4410    -3.6200 n2         1 1L7      -0.027000
     18 C18          2.2600    -0.9680    -3.5130 c2         1 1L7      -0.034000
     19 C19          1.5360    -0.8550    -2.3430 c2         1 1L7      -0.170500
     20 O20         -0.1290    -0.0050     2.3300 o          1 1L7      -0.298000
     21 H2           1.9050    -0.0000    -0.9380 ha         1 1L7       0.117000
     22 H4           3.8750     0.8680    -0.5880 ha         1 1L7       0.148000
     23 H5          -6.8780    -2.1110     1.7830 ha         1 1L7       0.103500
     24 H6          -8.0840     0.0300     1.5780 ha         1 1L7       0.102000
     25 H7          -6.8660     2.1590     1.8230 ha         1 1L7       0.103500
     26 H8          -4.4400     2.1480     2.2640 ha         1 1L7       0.106000
     27 H9          -4.4530    -2.1230     2.2290 ha         1 1L7       0.106000
     28 H10         -2.3310    -0.6830     1.8650 DU         1 1L7       0.262000
     29 H11         -2.4210     1.0010     2.3890 hx         1 1L7       0.079000
     30 H12         -2.5040    -0.3890     0.4580 hn         1 1L7       0.072000
     31 H13          5.0240     0.6310    -2.7730 h4         1 1L7       0.130000
     32 H14          1.8260    -1.5030    -4.3500 h4         1 1L7       0.130000
     33 H15          0.5790    -1.3490    -2.2300 ha         1 1L7       0.148000
@<TRIPOS>BOND
     1     1     3 1   
     2     1    13 1   
     3     1    14 1   
     4     2    14 1   
     5     3    15 1   
     6     3    21 1   
     7     4    15 1   
     8     4    16 1   
     9     4    22 1   
    10     5     6 1   
    11     5    10 1   
    12     5    23 1   
    13     6     7 1   
    14     6    24 1   
    15     7     8 1   
    16     7    25 1   
    17     8     9 1   
    18     8    26 1   
    19     9    10 1   
    20     9    11 1   
    21    10    27 1   
    22    11    12 1   
    23    11    28 1   
    24    11    29 1   
    25    12    13 1   
    26    12    28 1   
    27    12    30 1   
    28    13    20 1   
    29    15    19 1   
    30    16    17 1   
    31    16    31 1   
    32    17    18 1   
    33    18    19 1   
    34    18    32 1   
    35    19    33 1   
@<TRIPOS>SUBSTRUCTURE
     1 1L7         1 TEMP              0 ****  ****    0 ROOT
