@<TRIPOS>MOLECULE
1L8
   59    62     1     0     0
SMALL
bcc


@<TRIPOS>ATOM
      1 FAE          0.0000     0.0000     0.0000 f          1 1L8      -0.206633
      2 CBG          1.3990     0.0000     0.0000 c3         1 1L8       0.640200
      3 FAF          1.8650     0.0000     1.3180 f          1 1L8      -0.206633
      4 FAG          1.8640    -1.1430    -0.6600 f          1 1L8      -0.206633
      5 CBB          1.9020     1.2300    -0.7110 ca         1 1L8      -0.202300
      6 CD2          3.1090     1.1950    -1.3820 ca         1 1L8      -0.045000
      7 CAJ          1.1520     2.3920    -0.6960 ca         1 1L8      -0.040000
      8 CAH          1.6140     3.5200    -1.3480 ca         1 1L8      -0.105000
      9 CD1          2.8240     3.4860    -2.0140 ca         1 1L8      -0.062000
     10 CG           3.5700     2.3230    -2.0340 ca         1 1L8      -0.101300
     11 CB           4.8880     2.2850    -2.7660 c3         1 1L8      -0.000100
     12 CA           4.6540     1.8560    -4.2160 c3         1 1L8       0.137500
     13 C            5.9800     1.6990    -4.9140 c          1 1L8       0.583100
     14 O            6.2340     2.3720    -5.8900 o          1 1L8      -0.614100
     15 NBF          6.8830     0.8110    -4.4530 n          1 1L8      -0.167800
     16 CAR          6.7010    -0.0720    -3.2860 c3         1 1L8       0.050500
     17 CAN          7.6610    -1.2630    -3.5370 c3         1 1L8      -0.032900
     18 CAO          8.8740    -0.5530    -4.1930 c3         1 1L8      -0.032900
     19 CAS          8.2090     0.5560    -5.0350 c3         1 1L8       0.050500
     20 N            3.8570     2.8750    -4.9040 n7         1 1L8      -0.548100
     21 SBH          2.7520     2.4260    -6.0520 sy         1 1L8       1.041200
     22 OAB          2.1290     3.6220    -6.5000 o          1 1L8      -0.576300
     23 OAC          3.4220     1.5250    -6.9240 o          1 1L8      -0.576300
     24 CBC          1.5020     1.4900    -5.2360 ca         1 1L8      -0.138500
     25 CAM          0.3930     2.1240    -4.7120 ca         1 1L8      -0.008000
     26 CBA         -0.5950     1.3950    -4.0700 ca         1 1L8      -0.077300
     27 CAQ         -1.7850     2.1310    -3.5100 c3         1 1L8       0.037900
     28 CAP         -2.9220     1.1500    -3.2280 c3         1 1L8       0.140800
     29 NAV         -2.3860     0.0310    -2.4360 n7         1 1L8      -0.575200
     30 CAT         -1.5210    -0.8110    -3.2680 c3         1 1L8       0.199100
     31 CBD         -0.4720     0.0260    -3.9540 ca         1 1L8      -0.061300
     32 CAZ          0.6450    -0.6120    -4.4780 ca         1 1L8       0.079900
     33 FAD          0.7690    -1.9520    -4.3640 f          1 1L8      -0.123900
     34 CAL          1.6270     0.1180    -5.1230 ca         1 1L8      -0.047000
     35 H1           3.6930     0.2830    -1.3980 ha         1 1L8       0.118000
     36 H2           0.2040     2.4180    -0.1730 ha         1 1L8       0.122000
     37 H3           1.0280     4.4310    -1.3350 ha         1 1L8       0.112000
     38 H4           3.1860     4.3710    -2.5250 ha         1 1L8       0.112000
     39 H5           5.3390     3.2700    -2.7490 hc         1 1L8       0.039200
     40 H6           5.5490     1.5770    -2.2820 hc         1 1L8       0.039200
     41 H7           4.1230     0.9110    -4.2310 h1         1 1L8       0.047700
     42 H8           5.6760    -0.4200    -3.2350 h1         1 1L8       0.021950
     43 H9           6.9760     0.4470    -2.3760 h1         1 1L8       0.021950
     44 H10          7.2180    -1.9790    -4.2180 hc         1 1L8       0.026200
     45 H11          7.9470    -1.7300    -2.6020 hc         1 1L8       0.026200
     46 H12          9.5190    -0.1230    -3.4370 hc         1 1L8       0.026200
     47 H13          9.4190    -1.2400    -4.8290 hc         1 1L8       0.026200
     48 H14          8.1020     0.2250    -6.0610 h1         1 1L8       0.021950
     49 H15          8.8080     1.4580    -4.9930 h1         1 1L8       0.021950
     50 H16          4.0170     3.8450    -4.7170 hn         1 1L8       0.354800
     51 H17          0.2900     3.1970    -4.8130 ha         1 1L8       0.128000
     52 H18         -2.1200     2.8690    -4.2290 hc         1 1L8       0.028700
     53 H19         -1.5000     2.6240    -2.5880 hc         1 1L8       0.028700
     54 H20         -3.3190     0.7750    -4.1640 h1         1 1L8       0.011200
     55 H21         -3.7030     1.6500    -2.6680 h1         1 1L8       0.011200
     56 H22         -3.1440    -0.5180    -2.0800 hn         1 1L8       0.258800
     57 H24         -1.0240    -1.5330    -2.6300 h1         1 1L8       0.026700
     58 H25         -2.1290    -1.2910    -4.0260 h1         1 1L8       0.026700
     59 H26          2.4470    -0.3940    -5.6130 ha         1 1L8       0.140000
@<TRIPOS>BOND
     1     1     2 1   
     2     2     3 1   
     3     2     4 1   
     4     2     5 1   
     5     5     6 ar  
     6     5     7 ar  
     7     6    10 ar  
     8     6    35 1   
     9     7     8 ar  
    10     7    36 1   
    11     8     9 ar  
    12     8    37 1   
    13     9    10 ar  
    14     9    38 1   
    15    10    11 1   
    16    11    12 1   
    17    11    39 1   
    18    11    40 1   
    19    12    13 1   
    20    12    20 1   
    21    12    41 1   
    22    13    14 2   
    23    13    15 1   
    24    15    16 1   
    25    15    19 1   
    26    16    17 1   
    27    16    42 1   
    28    16    43 1   
    29    17    18 1   
    30    17    44 1   
    31    17    45 1   
    32    18    19 1   
    33    18    46 1   
    34    18    47 1   
    35    19    48 1   
    36    19    49 1   
    37    20    21 1   
    38    20    50 1   
    39    21    22 2   
    40    21    23 2   
    41    21    24 1   
    42    24    25 ar  
    43    24    34 ar  
    44    25    26 ar  
    45    25    51 1   
    46    26    27 1   
    47    26    31 ar  
    48    27    28 1   
    49    27    52 1   
    50    27    53 1   
    51    28    29 1   
    52    28    54 1   
    53    28    55 1   
    54    29    30 1   
    55    29    56 1   
    56    30    31 1   
    57    30    57 1   
    58    30    58 1   
    59    31    32 ar  
    60    32    33 1   
    61    32    34 ar  
    62    34    59 1   
@<TRIPOS>SUBSTRUCTURE
     1 1L8         1 TEMP              0 ****  ****    0 ROOT
