@<TRIPOS>MOLECULE
molecule
   59    62     1     0     0
SMALL
bcc


@<TRIPOS>ATOM
      1 FAE          0.0000     0.0000     0.0000 f          1 1L8      -0.221300
      2 CBG          1.3990     0.0000     0.0000 c3         1 1L8       0.671200
      3 FAF          1.8650     0.0000     1.3180 f          1 1L8      -0.221300
      4 FAG          1.8640    -1.1430    -0.6600 f          1 1L8      -0.221300
      5 CBB          1.9020     1.2300    -0.7110 ca         1 1L8      -0.171300
      6 CD2          3.1090     1.1950    -1.3820 ca         1 1L8      -0.081000
      7 CAJ          1.1520     2.3920    -0.6960 ca         1 1L8      -0.076000
      8 CAH          1.6140     3.5200    -1.3480 ca         1 1L8      -0.132000
      9 CD1          2.8240     3.4860    -2.0140 ca         1 1L8      -0.093000
     10 CG           3.5700     2.3230    -2.0340 ca         1 1L8      -0.093300
     11 CB           4.8880     2.2850    -2.7660 c3         1 1L8      -0.048100
     12 CA           4.6540     1.8560    -4.2160 c3         1 1L8       0.185500
     13 C            5.9800     1.6990    -4.9140 c          1 1L8       0.659100
     14 O            6.2340     2.3720    -5.8900 o          1 1L8      -0.576100
     15 NBF          6.8830     0.8110    -4.4530 n          1 1L8      -0.498800
     16 CAR          6.7010    -0.0720    -3.2860 c3         1 1L8       0.097500
     17 CAN          7.6610    -1.2630    -3.5370 c3         1 1L8      -0.096900
     18 CAO          8.8740    -0.5530    -4.1930 c3         1 1L8      -0.096900
     19 CAS          8.2090     0.5560    -5.0350 c3         1 1L8       0.097500
     20 N            3.8570     2.8750    -4.9040 n7         1 1L8      -0.887100
     21 SBH          2.7520     2.4260    -6.0520 sy         1 1L8       1.425200
     22 OAB          2.1290     3.6220    -6.5000 o          1 1L8      -0.623800
     23 OAC          3.4220     1.5250    -6.9240 o          1 1L8      -0.623800
     24 CBC          1.5020     1.4900    -5.2360 ca         1 1L8      -0.292500
     25 CAM          0.3930     2.1240    -4.7120 ca         1 1L8      -0.040000
     26 CBA         -0.5950     1.3950    -4.0700 ca         1 1L8      -0.062300
     27 CAQ         -1.7850     2.1310    -3.5100 c3         1 1L8      -0.028100
     28 CAP         -2.9220     1.1500    -3.2280 c3         1 1L8       0.150800
     29 NAV         -2.3860     0.0310    -2.4360 n7         1 1L8      -0.810200
     30 CAT         -1.5210    -0.8110    -3.2680 c3         1 1L8       0.198100
     31 CBD         -0.4720     0.0260    -3.9540 ca         1 1L8      -0.060300
     32 CAZ          0.6450    -0.6120    -4.4780 ca         1 1L8       0.113900
     33 FAD          0.7690    -1.9520    -4.3640 f          1 1L8      -0.136900
     34 CAL          1.6270     0.1180    -5.1230 ca         1 1L8      -0.083000
     35 H1           3.6930     0.2830    -1.3980 ha         1 1L8       0.143000
     36 H2           0.2040     2.4180    -0.1730 ha         1 1L8       0.152000
     37 H3           1.0280     4.4310    -1.3350 ha         1 1L8       0.141000
     38 H4           3.1860     4.3710    -2.5250 ha         1 1L8       0.136000
     39 H5           5.3390     3.2700    -2.7490 hc         1 1L8       0.068200
     40 H6           5.5490     1.5770    -2.2820 hc         1 1L8       0.068200
     41 H7           4.1230     0.9110    -4.2310 h1         1 1L8       0.078700
     42 H8           5.6760    -0.4200    -3.2350 h1         1 1L8       0.050200
     43 H9           6.9760     0.4470    -2.3760 h1         1 1L8       0.050200
     44 H10          7.2180    -1.9790    -4.2180 hc         1 1L8       0.057700
     45 H11          7.9470    -1.7300    -2.6020 hc         1 1L8       0.057700
     46 H12          9.5190    -0.1230    -3.4370 hc         1 1L8       0.057700
     47 H13          9.4190    -1.2400    -4.8290 hc         1 1L8       0.057700
     48 H14          8.1020     0.2250    -6.0610 h1         1 1L8       0.050200
     49 H15          8.8080     1.4580    -4.9930 h1         1 1L8       0.050200
     50 H16          4.0170     3.8450    -4.7170 hn         1 1L8       0.461800
     51 H17          0.2900     3.1970    -4.8130 ha         1 1L8       0.153000
     52 H18         -2.1200     2.8690    -4.2290 hc         1 1L8       0.060700
     53 H19         -1.5000     2.6240    -2.5880 hc         1 1L8       0.060700
     54 H20         -3.3190     0.7750    -4.1640 h1         1 1L8       0.039200
     55 H21         -3.7030     1.6500    -2.6680 h1         1 1L8       0.039200
     56 H22         -3.1440    -0.5180    -2.0800 hn         1 1L8       0.361800
     57 H24         -1.0240    -1.5330    -2.6300 h1         1 1L8       0.057700
     58 H25         -2.1290    -1.2910    -4.0260 h1         1 1L8       0.057700
     59 H26          2.4470    -0.3940    -5.6130 ha         1 1L8       0.165000
@<TRIPOS>BOND
     1    29    30 1   
     2    29    28 1   
     3    30    31 1   
     4     7     8 ar  
     5     7     5 ar  
     6     4     2 1   
     7     8     9 ar  
     8    33    32 1   
     9    28    27 1   
    10    31    32 ar  
    11    31    26 ar  
    12    32    34 ar  
    13     2     5 1   
    14     2     3 1   
    15     2     1 1   
    16     5     6 ar  
    17     9    10 ar  
    18    27    26 1   
    19    26    25 ar  
    20     6    10 ar  
    21    34    24 ar  
    22    10    11 1   
    23    25    24 ar  
    24    24    21 1   
    25    11    12 1   
    26    16    17 1   
    27    16    15 1   
    28    17    18 1   
    29    12    20 1   
    30    12    13 1   
    31    21    20 1   
    32    21    22 2   
    33    21    23 2   
    34    15    13 1   
    35    15    19 1   
    36    18    19 1   
    37    13    14 2   
    38     6    35 1   
    39     7    36 1   
    40     8    37 1   
    41     9    38 1   
    42    11    39 1   
    43    11    40 1   
    44    12    41 1   
    45    16    42 1   
    46    16    43 1   
    47    17    44 1   
    48    17    45 1   
    49    18    46 1   
    50    18    47 1   
    51    19    48 1   
    52    19    49 1   
    53    20    50 1   
    54    25    51 1   
    55    27    52 1   
    56    27    53 1   
    57    28    54 1   
    58    28    55 1   
    59    29    56 1   
    60    30    57 1   
    61    30    58 1   
    62    34    59 1   
@<TRIPOS>SUBSTRUCTURE
     1 1L8         1 TEMP              0 ****  ****    0 ROOT
