@<TRIPOS>MOLECULE
1L8
   60    63     1     0     0
SMALL
bcc


@<TRIPOS>ATOM
      1 FAE          0.7000     0.6630    -1.3280 f          1 1L8      -0.228967
      2 CBG          2.0260     0.3250    -1.2390 c3         1 1L8       0.688200
      3 FAF          2.2610     0.2480     0.1170 f          1 1L8      -0.228967
      4 FAG          2.7060     1.4450    -1.6390 f          1 1L8      -0.228967
      5 CBB          2.3980    -0.9550    -1.9830 ca         1 1L8      -0.163300
      6 CD2          1.5670    -2.0710    -1.8550 ca         1 1L8      -0.104000
      7 CAJ          3.5480    -1.0110    -2.7700 ca         1 1L8      -0.061000
      8 CAH          3.8730    -2.2010    -3.4250 ca         1 1L8      -0.119000
      9 CD1          3.0570    -3.3220    -3.2900 ca         1 1L8      -0.089000
     10 CG           1.9000    -3.2650    -2.5000 ca         1 1L8      -0.139300
     11 CB           1.0060    -4.4470    -2.3880 c3         1 1L8      -0.053100
     12 CA           1.4940    -5.4540    -1.3330 c3         1 1L8       0.048500
     13 C            0.4400    -6.5950    -1.2800 c          1 1L8       0.642100
     14 O           -0.5110    -6.4750    -0.4750 o          1 1L8      -0.607100
     15 NBF          0.5740    -7.6540    -2.1170 n          1 1L8      -0.438800
     16 CAR          1.6770    -7.8910    -3.0310 c3         1 1L8       0.086000
     17 CAN          1.3930    -9.2210    -3.7510 c3         1 1L8      -0.089400
     18 CAO          0.0840    -9.7600    -3.1800 c3         1 1L8      -0.089400
     19 CAS         -0.4080    -8.7350    -2.1500 c3         1 1L8       0.086000
     20 N            1.6490    -4.8490     0.0210 ny         1 1L8      -0.703900
     21 SBH          3.0810    -5.5460     1.0670 sy         1 1L8       1.482200
     22 OAB          3.9500    -6.0240     0.1040 o          1 1L8      -0.571800
     23 OAC          2.4100    -6.4080     1.9110 o          1 1L8      -0.571800
     24 CBC          3.5200    -4.1550     1.7440 ca         1 1L8      -0.516500
     25 CAM          2.9670    -3.7430     2.9730 ca         1 1L8      -0.008000
     26 CBA          3.3890    -2.5790     3.6120 ca         1 1L8      -0.058300
     27 CAQ          2.8010    -2.2020     4.9270 c3         1 1L8      -0.048100
     28 CAP          3.0640    -0.7380     5.2850 c3         1 1L8       0.159800
     29 NAV          4.4390    -0.3550     5.0430 n7         1 1L8      -0.821200
     30 CAT          4.8590    -0.5130     3.6680 c3         1 1L8       0.184100
     31 CBD          4.3880    -1.7830     3.0290 ca         1 1L8       0.027700
     32 CAZ          4.9570    -2.1880     1.7930 ca         1 1L8       0.115900
     33 FAD          5.9240    -1.4390     1.2160 f          1 1L8      -0.107900
     34 CAL          4.5280    -3.3600     1.1650 ca         1 1L8      -0.049000
     35 H1           0.6330    -1.9850    -1.2740 ha         1 1L8       0.151000
     36 H2           4.1880    -0.1180    -2.8820 ha         1 1L8       0.173000
     37 H3           4.7730    -2.2470    -4.0600 ha         1 1L8       0.165000
     38 H4           3.3150    -4.2540    -3.8190 ha         1 1L8       0.149000
     39 H5          -0.0430    -4.1250    -2.1400 hc         1 1L8       0.096700
     40 H6           0.9630    -4.9890    -3.3730 hc         1 1L8       0.096700
     41 H7           2.5110    -5.8470    -1.6430 hx         1 1L8       0.126700
     42 H8           1.7510    -7.0460    -3.7700 h1         1 1L8       0.060700
     43 H9           2.6460    -7.9500    -2.4610 h1         1 1L8       0.060700
     44 H10          1.3090    -9.0510    -4.8520 hc         1 1L8       0.070700
     45 H11          2.2320    -9.9380    -3.5750 hc         1 1L8       0.070700
     46 H12          0.2410   -10.7530    -2.6900 hc         1 1L8       0.070700
     47 H13         -0.6790    -9.8930    -3.9870 hc         1 1L8       0.070700
     48 H14         -1.4120    -8.3130    -2.4320 h1         1 1L8       0.060700
     49 H15         -0.4980    -9.1870    -1.1240 h1         1 1L8       0.060700
     50 H16          0.7640    -5.0070     0.5270 hn         1 1L8       0.462800
     51 H17          2.1940    -4.3710     3.4570 ha         1 1L8       0.171000
     52 H18          1.6920    -2.3760     4.9230 hc         1 1L8       0.079700
     53 H19          3.2480    -2.8680     5.7170 hc         1 1L8       0.079700
     54 H20          2.8600    -0.5950     6.3840 h1         1 1L8       0.052200
     55 H21          2.3320    -0.0940     4.7130 h1         1 1L8       0.052200
     56 H22          4.6150     0.5810     5.3570 hn         1 1L8       0.396800
     57 H24          4.5130     0.3330     2.9950 h1         1 1L8       0.079700
     58 H25          5.9910    -0.5020     3.6600 h1         1 1L8       0.079700
     59 H26          5.0070    -3.6710     0.2180 ha         1 1L8       0.177000
     60 H23          1.7540    -3.8390    -0.0940 hn         1 1L8       0.462800
@<TRIPOS>BOND
     1     1     2 1   
     2     2     3 1   
     3     2     4 1   
     4     2     5 1   
     5     5     6 ar  
     6     5     7 ar  
     7     6    10 ar  
     8     6    35 1   
     9     7     8 ar  
    10     7    36 1   
    11     8     9 ar  
    12     8    37 1   
    13     9    10 ar  
    14     9    38 1   
    15    10    11 1   
    16    11    12 1   
    17    11    39 1   
    18    11    40 1   
    19    12    13 1   
    20    12    20 1   
    21    12    41 1   
    22    13    14 2   
    23    13    15 1   
    24    15    16 1   
    25    15    19 1   
    26    16    17 1   
    27    16    42 1   
    28    16    43 1   
    29    17    18 1   
    30    17    44 1   
    31    17    45 1   
    32    18    19 1   
    33    18    46 1   
    34    18    47 1   
    35    19    48 1   
    36    19    49 1   
    37    20    21 1   
    38    20    50 1   
    39    20    60 1   
    40    21    22 2   
    41    21    23 2   
    42    21    24 1   
    43    24    25 ar  
    44    24    34 ar  
    45    25    26 ar  
    46    25    51 1   
    47    26    27 1   
    48    26    31 ar  
    49    27    28 1   
    50    27    52 1   
    51    27    53 1   
    52    28    29 1   
    53    28    54 1   
    54    28    55 1   
    55    29    30 1   
    56    29    56 1   
    57    30    31 1   
    58    30    57 1   
    59    30    58 1   
    60    31    32 ar  
    61    32    33 1   
    62    32    34 ar  
    63    34    59 1   
@<TRIPOS>SUBSTRUCTURE
     1 1L8         1 TEMP              0 ****  ****    0 ROOT
