@<TRIPOS>MOLECULE
1LB
   27    28     1     0     0
SMALL
bcc


@<TRIPOS>ATOM
      1 C01          1.6080    -0.0590     0.1270 c3         1 1LB      -0.051600
      2 C02          1.9230     0.3530     1.4790 c1         1 1LB       0.139700
      3 N03          2.2220     0.6660     2.5580 n1         1 1LB      -0.250800
      4 C04          0.1300    -0.3570    -0.0190 c          1 1LB       0.555100
      5 N05         -0.8110     0.6490     0.5990 nz         1 1LB      -0.763400
      6 O06         -0.3940    -1.2880    -0.6040 o          1 1LB      -0.381100
      7 C07          2.0500     0.9720    -0.9210 c3         1 1LB      -0.029100
      8 C08          1.2400     2.2190    -0.9290 ca         1 1LB      -0.223300
      9 C09          0.3040     2.4240    -1.9740 ca         1 1LB      -0.128000
     10 C10         -0.4260     3.5930    -2.0920 ca         1 1LB      -0.129000
     11 C11         -0.2100     4.5930    -1.1300 ca         1 1LB      -0.043200
     12 N12         -0.7610     5.8600    -0.9240 na         1 1LB      -0.001100
     13 N13         -0.2090     6.4720     0.1330 nc         1 1LB      -0.466100
     14 C14          0.6870     5.6410     0.6980 cd         1 1LB       0.359800
     15 C15          0.7500     4.3960    -0.0580 ca         1 1LB      -0.232900
     16 C16          1.4790     3.2160     0.0160 ca         1 1LB      -0.045000
     17 H011         2.1550    -1.0350    -0.0860 hc         1 1LB       0.158700
     18 H051        -0.6600     0.6910     1.6120 hn         1 1LB       0.477467
     19 H052        -1.7870     0.3920     0.4130 hn         1 1LB       0.477467
     20 H071         2.0120     0.4770    -1.9310 hc         1 1LB       0.100700
     21 H072         3.1290     1.2200    -0.7140 hc         1 1LB       0.100700
     22 H091         0.1870     1.6430    -2.7450 ha         1 1LB       0.148000
     23 H101        -1.1290     3.7450    -2.9250 ha         1 1LB       0.165000
     24 H121        -1.3560     6.3640    -1.5430 hn         1 1LB       0.346700
     25 H141         1.2660     5.9130     1.5850 h4         1 1LB       0.077800
     26 H161         2.2450     3.0860     0.7970 ha         1 1LB       0.158000
     27 H053        -0.6140     1.5810     0.1920 hn         1 1LB       0.477467
@<TRIPOS>BOND
     1     1     2 1   
     2     1     4 1   
     3     1     7 1   
     4     1    17 1   
     5     2     3 3   
     6     4     5 1   
     7     4     6 2   
     8     5    18 1   
     9     5    19 1   
    10     5    27 1   
    11     7     8 1   
    12     7    20 1   
    13     7    21 1   
    14     8     9 ar  
    15     8    16 ar  
    16     9    10 ar  
    17     9    22 1   
    18    10    11 ar  
    19    10    23 1   
    20    11    12 1   
    21    11    15 ar  
    22    12    13 1   
    23    12    24 1   
    24    13    14 2   
    25    14    15 1   
    26    14    25 1   
    27    15    16 ar  
    28    16    26 1   
@<TRIPOS>SUBSTRUCTURE
     1 1LB         1 TEMP              0 ****  ****    0 ROOT
