@<TRIPOS>MOLECULE
1LB
   27    28     1     0     0
SMALL
bcc


@<TRIPOS>ATOM
      1 C01          1.5060     0.0000     0.0000 c3         1 1LB       0.035400
      2 C02          1.9980     0.0000     1.3880 c1         1 1LB       0.102700
      3 N03          2.3800    -0.0190     2.4570 n1         1 1LB      -0.249800
      4 C04          0.0000     0.0000     0.0000 c          1 1LB       0.308100
      5 N05         -0.6740    -1.0100     0.5840 nz         1 1LB       0.197600
      6 O06         -0.6070     0.9100    -0.5250 o          1 1LB      -0.373100
      7 C07          2.0170     1.2490    -0.7220 c3         1 1LB       0.058900
      8 C08          3.5190     1.1880    -0.8300 ca         1 1LB      -0.197300
      9 C09          4.3040     1.7270     0.1820 ca         1 1LB      -0.060000
     10 C10          5.6670     1.6840     0.1070 ca         1 1LB      -0.091000
     11 C11          6.2830     1.0950    -0.9940 ca         1 1LB      -0.150200
     12 N12          7.5900     0.8980    -1.3580 na         1 1LB       0.425900
     13 N13          7.6260     0.2390    -2.5910 nc         1 1LB      -0.644100
     14 C14          6.4150     0.0160    -3.0150 cd         1 1LB       0.439800
     15 C15          5.4890     0.5490    -2.0210 ca         1 1LB      -0.252900
     16 C16          4.0940     0.6000    -1.9190 ca         1 1LB       0.004000
     17 H011         1.8670    -0.8850    -0.5110 hc         1 1LB       0.078700
     18 H051        -1.5250    -1.1760     0.0840 hn         1 1LB       0.251133
     19 H052        -0.1130    -1.8380     0.5710 hn         1 1LB       0.251133
     20 H071         1.5850     1.2950    -1.7140 hc         1 1LB       0.044700
     21 H072         1.7310     2.1310    -0.1620 hc         1 1LB       0.044700
     22 H091         3.8300     2.1890     1.0390 ha         1 1LB       0.108000
     23 H101         6.2670     2.1070     0.9030 ha         1 1LB       0.118000
     24 H121         8.5010     1.1020    -0.9970 hn         1 1LB       0.171700
     25 H141         6.3490    -0.4770    -3.9770 h4         1 1LB       0.023800
     26 H161         3.4780     0.2840    -2.7520 ha         1 1LB       0.102000
     27 H053        -0.8490    -0.7840     1.5440 hn         1 1LB       0.251133
@<TRIPOS>BOND
     1     1     2 1   
     2     1     4 1   
     3     1     7 1   
     4     1    17 1   
     5     2     3 3   
     6     4     5 1   
     7     4     6 2   
     8     5    18 1   
     9     5    19 1   
    10     5    27 1   
    11     7     8 1   
    12     7    20 1   
    13     7    21 1   
    14     8     9 ar  
    15     8    16 ar  
    16     9    10 ar  
    17     9    22 1   
    18    10    11 ar  
    19    10    23 1   
    20    11    12 1   
    21    11    15 ar  
    22    12    13 1   
    23    12    24 1   
    24    13    14 2   
    25    14    15 1   
    26    14    25 1   
    27    15    16 ar  
    28    16    26 1   
@<TRIPOS>SUBSTRUCTURE
     1 1LB         1 TEMP              0 ****  ****    0 ROOT
