@<TRIPOS>MOLECULE
molecule
   27    28     1     0     0
SMALL
bcc


@<TRIPOS>ATOM
      1 C01          1.5060     0.0000     0.0000 c3         1 1LB      -0.065600
      2 C02          1.9980     0.0000     1.3880 c1         1 1LB       0.151700
      3 N03          2.3800    -0.0190     2.4570 n1         1 1LB      -0.254800
      4 C04          0.0000     0.0000     0.0000 c          1 1LB       0.484100
      5 N05         -0.6740    -1.0100     0.5840 nz         1 1LB      -0.685400
      6 O06         -0.6070     0.9100    -0.5250 o          1 1LB      -0.374100
      7 C07          2.0170     1.2490    -0.7220 c3         1 1LB      -0.003100
      8 C08          3.5190     1.1880    -0.8300 ca         1 1LB      -0.178300
      9 C09          4.3040     1.7270     0.1820 ca         1 1LB      -0.082000
     10 C10          5.6670     1.6840     0.1070 ca         1 1LB      -0.134000
     11 C11          6.2830     1.0950    -0.9940 ca         1 1LB       0.024800
     12 N12          7.5900     0.8980    -1.3580 na         1 1LB      -0.047100
     13 N13          7.6260     0.2390    -2.5910 nc         1 1LB      -0.510100
     14 C14          6.4150     0.0160    -3.0150 cd         1 1LB       0.380800
     15 C15          5.4890     0.5490    -2.0210 ca         1 1LB      -0.241900
     16 C16          4.0940     0.6000    -1.9190 ca         1 1LB      -0.037000
     17 H011         1.8670    -0.8850    -0.5110 hc         1 1LB       0.122700
     18 H051        -1.5250    -1.1760     0.0840 hn         1 1LB       0.482800
     19 H052        -0.1130    -1.8380     0.5710 hn         1 1LB       0.482800
     20 H071         1.5850     1.2950    -1.7140 hc         1 1LB       0.080700
     21 H072         1.7310     2.1310    -0.1620 hc         1 1LB       0.080700
     22 H091         3.8300     2.1890     1.0390 ha         1 1LB       0.136000
     23 H101         6.2670     2.1070     0.9030 ha         1 1LB       0.150000
     24 H121         8.5010     1.1020    -0.9970 hn         1 1LB       0.350700
     25 H141         6.3490    -0.4770    -3.9770 h4         1 1LB       0.071800
     26 H161         3.4780     0.2840    -2.7520 ha         1 1LB       0.132000
     27 H053        -0.8490    -0.7840     1.5440 hn         1 1LB       0.482800
@<TRIPOS>BOND
     1     5     4 1
     2    10     9 ar
     3    10    11 ar
     4     4     6 2
     5     4     1 1
     6     9     8 ar
     7    11    12 1
     8    11    15 ar
     9    12    13 1
    10     1     7 1
    11     1     2 1
    12     8     7 1
    13     8    16 ar
    14    15    16 ar
    15    15    14 1
    16    13    14 2
    17     2     3 3
    18     1    17 1
    19     5    18 1
    20     5    19 1
    21     7    20 1
    22     7    21 1
    23     9    22 1
    24    10    23 1
    25    12    24 1
    26    14    25 1
    27    16    26 1
    28    27     5 1
@<TRIPOS>SUBSTRUCTURE
     1 1LB         1 TEMP              0 ****  ****    0 ROOT
