@<TRIPOS>MOLECULE
1LC
   39    41     1     0     0
SMALL
bcc


@<TRIPOS>ATOM
      1 O01         -0.2500    -0.9930     0.2460 o          1 1LC      -0.447100
      2 C02          0.8400    -0.4290     0.2120 c          1 1LC       0.598900
      3 C03          1.6550    -0.1410     1.4220 ca         1 1LC      -0.152600
      4 C04          3.0310    -0.3870     1.3710 ca         1 1LC      -0.158000
      5 C05          3.8650     0.0370     2.4090 ca         1 1LC      -0.146300
      6 C06          5.3330    -0.1660     2.2970 c3         1 1LC      -0.046100
      7 C07          6.1300     1.1060     1.9960 c3         1 1LC      -0.035600
      8 C08          6.2530     1.9380     3.1790 c1         1 1LC       0.159700
      9 N09          6.3720     2.5900     4.1330 n1         1 1LC      -0.234800
     10 C10          5.6080     1.9640     0.8580 c          1 1LC       0.543100
     11 N11          4.8950     1.2650    -0.2700 nz         1 1LC      -0.758400
     12 O12          5.7280     3.1690     0.7170 o          1 1LC      -0.379100
     13 C13          3.2930     0.6090     3.5540 ca         1 1LC      -0.087000
     14 C14          1.9120     0.7790     3.6380 ca         1 1LC      -0.107000
     15 C15          1.0870     0.4170     2.5700 ca         1 1LC      -0.060000
     16 C16          1.4920     0.0380    -1.0200 cc         1 1LC      -0.175400
     17 C17          1.8270     1.3540    -1.3200 cd         1 1LC      -0.148100
     18 N18          2.6120     1.4240    -2.4910 na         1 1LC      -0.313100
     19 C19          2.6410     0.1050    -3.0350 ca         1 1LC       0.391800
     20 N20          3.2360    -0.2930    -4.1930 nb         1 1LC      -0.656000
     21 C21          3.1390    -1.6060    -4.4530 ca         1 1LC       0.430200
     22 C22          2.4930    -2.5550    -3.6210 ca         1 1LC      -0.245300
     23 C23          1.9050    -2.1470    -2.4300 ca         1 1LC      -0.040000
     24 C24          1.9740    -0.7910    -2.1060 ca         1 1LC      -0.199100
     25 H041         3.4370    -0.9650     0.5240 ha         1 1LC       0.130000
     26 H062         5.5620    -0.9310     1.5060 hc         1 1LC       0.090700
     27 H061         5.7260    -0.5850     3.2690 hc         1 1LC       0.090700
     28 H071         7.1810     0.7930     1.6850 hc         1 1LC       0.138700
     29 H112         5.2620     0.3200    -0.4040 hn         1 1LC       0.478467
     30 H111         4.9890     1.8000    -1.1440 hn         1 1LC       0.478467
     31 H131         3.9360     0.9160     4.3960 ha         1 1LC       0.158000
     32 H141         1.4670     1.2030     4.5540 ha         1 1LC       0.169000
     33 H151        -0.0050     0.5620     2.6280 ha         1 1LC       0.175000
     34 H171         1.5500     2.2720    -0.7920 h4         1 1LC       0.187000
     35 H181         2.5330     2.2040    -3.1070 hn         1 1LC       0.309700
     36 H211         3.6050    -1.9270    -5.4060 h4         1 1LC       0.047100
     37 H1           2.4530    -3.6090    -3.9360 ha         1 1LC       0.168000
     38 H231         1.3870    -2.8600    -1.7690 ha         1 1LC       0.166000
     39 H113         3.8840     1.1910    -0.0440 hn         1 1LC       0.478467
@<TRIPOS>BOND
     1     1     2 2   
     2     2     3 1   
     3     2    16 1   
     4     3     4 ar  
     5     3    15 ar  
     6     4     5 ar  
     7     4    25 1   
     8     5     6 1   
     9     5    13 ar  
    10     6     7 1   
    11     6    26 1   
    12     6    27 1   
    13     7     8 1   
    14     7    10 1   
    15     7    28 1   
    16     8     9 3   
    17    10    11 1   
    18    10    12 2   
    19    11    29 1   
    20    11    30 1   
    21    11    39 1   
    22    13    14 ar  
    23    13    31 1   
    24    14    15 ar  
    25    14    32 1   
    26    15    33 1   
    27    16    17 2   
    28    16    24 1   
    29    17    18 1   
    30    17    34 1   
    31    18    19 1   
    32    18    35 1   
    33    19    20 ar  
    34    19    24 ar  
    35    20    21 ar  
    36    21    22 ar  
    37    21    36 1   
    38    22    23 ar  
    39    22    37 1   
    40    23    24 ar  
    41    23    38 1   
@<TRIPOS>SUBSTRUCTURE
     1 1LC         1 TEMP              0 ****  ****    0 ROOT
