@<TRIPOS>MOLECULE
1LC
   39    41     1     0     0
SMALL
bcc


@<TRIPOS>ATOM
      1 O01          0.0000     0.0000     0.0000 o          1 1LC      -0.562100
      2 C02          1.2160     0.0000     0.0000 c          1 1LC       0.674900
      3 C03          1.9550     0.0000     1.2810 ca         1 1LC      -0.119600
      4 C04          1.3940    -0.5940     2.4130 ca         1 1LC      -0.045000
      5 C05          2.0900    -0.5910     3.6060 ca         1 1LC      -0.155300
      6 C06          1.4860    -1.2310     4.8290 c3         1 1LC       0.049900
      7 C07          1.8960    -2.7040     4.8880 c3         1 1LC       0.040400
      8 C08          1.3110    -3.4230     3.7450 c1         1 1LC       0.089700
      9 N09          0.8550    -3.9600     2.8540 n1         1 1LC      -0.234800
     10 C10          1.3960    -3.3130     6.1730 c          1 1LC       0.307100
     11 N11          1.6410    -4.6100     6.4440 nz         1 1LC       0.199600
     12 O12          0.7730    -2.6350     6.9630 o          1 1LC      -0.372100
     13 C13          3.3390    -0.0020     3.6790 ca         1 1LC      -0.083000
     14 C14          3.9000     0.5890     2.5610 ca         1 1LC      -0.113000
     15 C15          3.2190     0.5880     1.3620 ca         1 1LC      -0.061000
     16 C16          1.9500    -0.0060    -1.2710 cc         1 1LC      -0.224400
     17 C17          3.3020    -0.1250    -1.4360 cd         1 1LC      -0.202100
     18 N18          3.6060    -0.0890    -2.7550 na         1 1LC       0.248900
     19 C19          2.4640     0.0550    -3.5120 ca         1 1LC       0.215800
     20 N20          2.2500     0.1380    -4.8180 nb         1 1LC      -0.577000
     21 C21          1.0400     0.2750    -5.3150 ca         1 1LC       0.418200
     22 C22         -0.0760     0.3390    -4.4950 ca         1 1LC      -0.242300
     23 C23          0.0850     0.2580    -3.1230 ca         1 1LC      -0.007000
     24 C24          1.3770     0.1070    -2.6240 ca         1 1LC      -0.151100
     25 H041         0.3840    -0.9830     2.3770 ha         1 1LC       0.128000
     26 H062         1.8430    -0.7210     5.7160 hc         1 1LC       0.048700
     27 H061         0.4070    -1.1580     4.7800 hc         1 1LC       0.048700
     28 H071         2.9760    -2.7810     4.8490 hc         1 1LC       0.076700
     29 H112         2.5130    -4.8780     6.0330 hn         1 1LC       0.251133
     30 H111         0.9070    -5.1750     6.0650 hn         1 1LC       0.251133
     31 H131         3.8790     0.0010     4.6180 ha         1 1LC       0.100000
     32 H141         4.8770     1.0520     2.6270 ha         1 1LC       0.117000
     33 H151         3.5490     1.5150     0.9090 ha         1 1LC       0.134000
     34 H171         4.1660    -0.5930    -0.9810 h4         1 1LC       0.135000
     35 H181         4.5250    -0.1320    -3.1500 hn         1 1LC       0.130700
     36 H211         1.0080     0.3310    -6.3960 h4         1 1LC      -0.014900
     37 H1          -1.0460     0.4540    -4.9630 ha         1 1LC       0.120000
     38 H231        -0.8770     0.3400    -2.6310 ha         1 1LC       0.127000
     39 H113         1.7010    -4.7380     7.4350 hn         1 1LC       0.251133
@<TRIPOS>BOND
     1     1     2 2   
     2     2     3 1   
     3     2    16 1   
     4     3     4 ar  
     5     3    15 ar  
     6     4     5 ar  
     7     4    25 1   
     8     5     6 1   
     9     5    13 ar  
    10     6     7 1   
    11     6    26 1   
    12     6    27 1   
    13     7     8 1   
    14     7    10 1   
    15     7    28 1   
    16     8     9 3   
    17    10    11 1   
    18    10    12 2   
    19    11    29 1   
    20    11    30 1   
    21    11    39 1   
    22    13    14 ar  
    23    13    31 1   
    24    14    15 ar  
    25    14    32 1   
    26    15    33 1   
    27    16    17 2   
    28    16    24 1   
    29    17    18 1   
    30    17    34 1   
    31    18    19 1   
    32    18    35 1   
    33    19    20 ar  
    34    19    24 ar  
    35    20    21 ar  
    36    21    22 ar  
    37    21    36 1   
    38    22    23 ar  
    39    22    37 1   
    40    23    24 ar  
    41    23    38 1   
@<TRIPOS>SUBSTRUCTURE
     1 1LC         1 TEMP              0 ****  ****    0 ROOT
