@<TRIPOS>MOLECULE
molecule
   14    14     1     0     0
SMALL
bcc


@<TRIPOS>ATOM
      1 N1           0.0000     0.0000     0.0000 ns         1 1LD      -0.396100
      2 C6           1.3650     0.0000     0.0000 cc         1 1LD       0.095600
      3 C2          -0.6800    -0.0010     1.1610 c          1 1LD       0.815900
      4 O2          -1.9000     0.0040     1.1410 o          1 1LD      -0.511500
      5 N3          -0.0440    -0.0070     2.3310 nd         1 1LD      -0.603100
      6 C4           1.2820    -0.0120     2.3820 cc         1 1LD       0.556500
      7 N4           1.9280    -0.0190     3.5980 nz         1 1LD      -0.741600
      8 C5           2.0270     0.0000     1.1830 cc         1 1LD      -0.138100
      9 F            3.3770    -0.0050     1.2130 f          1 1LD      -0.134500
     10 H1          -0.4980     0.0000    -0.8680 hn         1 1LD       0.389500
     11 H2           1.9130     0.0050    -0.9340 h4         1 1LD       0.217000
     12 H3           1.2510    -0.0270     4.3350 hn         1 1LD       0.483467
     13 H4           2.4980     0.7990     3.6770 hn         1 1LD       0.483467
     14 H43          2.5030    -0.8350     3.6650 hn         1 1LD       0.483467
@<TRIPOS>BOND
     1     9     8 1
     2     7     6 1
     3     8     6 1
     4     8     2 2
     5     6     5 2
     6     2     1 1
     7     5     3 1
     8     1     3 1
     9     3     4 2
    10     1    10 1
    11     2    11 1
    12     7    12 1
    13     7    13 1
    14    14     7 1
@<TRIPOS>SUBSTRUCTURE
     1 1LD         1 TEMP              0 ****  ****    0 ROOT
