@<TRIPOS>MOLECULE
1LD
   14    14     1     0     0
SMALL
bcc


@<TRIPOS>ATOM
      1 N1           0.0100     0.0050    -0.0350 ns         1 1LD      -0.421100
      2 C6           1.3640     0.0010    -0.0260 cc         1 1LD       0.107600
      3 C2          -0.7500     0.0050     1.1870 c          1 1LD       0.820900
      4 O2          -1.9810     0.0090     1.1270 o          1 1LD      -0.478500
      5 N3          -0.0420    -0.0010     2.4270 nc         1 1LD      -0.593100
      6 C4           1.2730    -0.0050     2.3980 cd         1 1LD       0.589500
      7 N4           2.0030    -0.0100     3.6910 nz         1 1LD      -0.798600
      8 C5           2.0670    -0.0040     1.1830 cd         1 1LD      -0.163100
      9 F            3.4160    -0.0090     1.2310 f          1 1LD      -0.129500
     10 H1          -0.5030     0.0090    -0.8980 hn         1 1LD       0.386500
     11 H2           1.9060     0.0010    -0.9970 h4         1 1LD       0.219000
     12 H3           2.5980    -0.8480     3.7220 hn         1 1LD       0.486467
     13 H4           2.5970     0.8290     3.7300 hn         1 1LD       0.486467
     14 H43          1.3540    -0.0140     4.4920 hn         1 1LD       0.486467
@<TRIPOS>BOND
     1     1     2 1   
     2     1     3 1   
     3     1    10 1   
     4     2     8 2   
     5     2    11 1   
     6     3     4 2   
     7     3     5 1   
     8     5     6 2   
     9     6     7 1   
    10     6     8 1   
    11     7    12 1   
    12     7    13 1   
    13     7    14 1   
    14     8     9 1   
@<TRIPOS>SUBSTRUCTURE
     1 1LD         1 TEMP              0 ****  ****    0 ROOT
