@<TRIPOS>MOLECULE
1LE
   62    64     1     0     0
SMALL
bcc


@<TRIPOS>ATOM
      1 O01          1.6760    -2.4660     0.0630 o          1 1LE      -0.397100
      2 C02          2.2600    -1.4070    -0.0980 c          1 1LE       0.550100
      3 N03          2.4300    -0.5020     1.0940 ny         1 1LE      -0.677800
      4 C04          1.1450    -0.1880     1.8600 c3         1 1LE       0.154200
      5 C05          0.0220     0.1740     0.8900 c3         1 1LE      -0.131600
      6 C06          0.7300    -1.3750     2.7280 c3         1 1LE      -0.131600
      7 C07          1.4180     1.0220     2.7980 c3         1 1LE       0.109400
      8 O08          1.9930     2.0510     2.0130 oh         1 1LE      -0.634800
      9 C09          2.8530    -0.9010    -1.4040 c3         1 1LE      -0.062600
     10 C10          4.2040    -0.4230    -1.1960 c1         1 1LE       0.149700
     11 N11          5.2960    -0.0440    -1.0740 n1         1 1LE      -0.260800
     12 C12          1.9410     0.1780    -2.0070 c3         1 1LE      -0.013100
     13 C13          2.2050     0.3470    -3.4600 ca         1 1LE      -0.169300
     14 C14          2.8710     1.5070    -3.9180 ca         1 1LE      -0.086000
     15 C15          3.1140     1.7290    -5.2620 ca         1 1LE      -0.125000
     16 C16          2.6780     0.7510    -6.1700 ca         1 1LE      -0.032200
     17 N17          2.7350     0.6490    -7.5620 na         1 1LE      -0.004100
     18 N18          2.1780    -0.4810    -8.0070 nc         1 1LE      -0.475100
     19 C19          1.7150    -1.1860    -6.9410 cd         1 1LE       0.403500
     20 C20          1.0400    -2.4720    -7.0210 ca         1 1LE      -0.074900
     21 C21          0.1580    -2.7440    -8.0730 ca         1 1LE      -0.138500
     22 C22         -0.4960    -3.9810    -8.1210 ca         1 1LE       0.115100
     23 O23         -1.4430    -4.1620    -9.1170 os         1 1LE      -0.343400
     24 C24         -1.0950    -5.1640   -10.0770 c3         1 1LE       0.118200
     25 C25         -0.2870    -4.9520    -7.1220 ca         1 1LE       0.027100
     26 O26         -0.8700    -6.2060    -7.2070 os         1 1LE      -0.345900
     27 C27         -2.2840    -6.2030    -6.9880 c3         1 1LE       0.109700
     28 C28          0.6220    -4.6730    -6.0830 ca         1 1LE       0.115100
     29 O29          0.8960    -5.5060    -5.0170 os         1 1LE      -0.343400
     30 C30          0.7870    -6.9100    -5.2540 c3         1 1LE       0.118200
     31 C31          1.2890    -3.4390    -6.0420 ca         1 1LE      -0.138500
     32 C32          2.0030    -0.4460    -5.7110 ca         1 1LE      -0.202900
     33 C33          1.7640    -0.6270    -4.3540 ca         1 1LE      -0.042000
     34 H031         2.8260     0.3970     0.7790 hn         1 1LE       0.470300
     35 H052         0.2960     1.0720     0.2810 hc         1 1LE       0.081533
     36 H053        -0.8950     0.4190     1.4830 hc         1 1LE       0.081533
     37 H051        -0.2230    -0.6820     0.2140 hc         1 1LE       0.081533
     38 H063         0.4860    -2.2680     2.0990 hc         1 1LE       0.081533
     39 H061        -0.1860    -1.0900     3.3020 hc         1 1LE       0.081533
     40 H062         1.5300    -1.6490     3.4580 hc         1 1LE       0.081533
     41 H071         0.4400     1.3430     3.2440 h1         1 1LE       0.071700
     42 H072         2.1290     0.7310     3.6180 h1         1 1LE       0.071700
     43 H081         1.9040     2.8800     2.5030 ho         1 1LE       0.455000
     44 H091         2.8810    -1.7900    -2.1140 hc         1 1LE       0.162700
     45 H121         2.0920     1.1490    -1.4640 hc         1 1LE       0.065200
     46 H122         0.8720    -0.1390    -1.8560 hc         1 1LE       0.065200
     47 H141         3.2000     2.2600    -3.1840 ha         1 1LE       0.134000
     48 H151         3.6270     2.6380    -5.6060 ha         1 1LE       0.155000
     49 H171         3.1570     1.2850    -8.1990 hn         1 1LE       0.340700
     50 H211        -0.0370    -2.0010    -8.8610 ha         1 1LE       0.154500
     51 H242        -1.9650    -5.1640   -10.7790 h1         1 1LE       0.051033
     52 H243        -0.9800    -6.1560    -9.5770 h1         1 1LE       0.051033
     53 H241        -0.1550    -4.8780   -10.6080 h1         1 1LE       0.051033
     54 H272        -2.5750    -7.2710    -7.1510 h1         1 1LE       0.050700
     55 H273        -2.7900    -5.5310    -7.7230 h1         1 1LE       0.050700
     56 H271        -2.5070    -5.8830    -5.9420 h1         1 1LE       0.050700
     57 H302         1.3900    -7.3630    -4.4270 h1         1 1LE       0.051033
     58 H303         1.2000    -7.1870    -6.2520 h1         1 1LE       0.051033
     59 H301        -0.2860    -7.2160    -5.1800 h1         1 1LE       0.051033
     60 H311         2.0110    -3.2500    -5.2350 ha         1 1LE       0.154500
     61 H331         1.2260    -1.5220    -4.0050 ha         1 1LE       0.144000
     62 H032         3.0860    -0.9390     1.7510 hn         1 1LE       0.470300
@<TRIPOS>BOND
     1     1     2 2   
     2     2     3 1   
     3     2     9 1   
     4     3     4 1   
     5     3    34 1   
     6     3    62 1   
     7     4     5 1   
     8     4     6 1   
     9     4     7 1   
    10     5    35 1   
    11     5    36 1   
    12     5    37 1   
    13     6    38 1   
    14     6    39 1   
    15     6    40 1   
    16     7     8 1   
    17     7    41 1   
    18     7    42 1   
    19     8    43 1   
    20     9    10 1   
    21     9    12 1   
    22     9    44 1   
    23    10    11 3   
    24    12    13 1   
    25    12    45 1   
    26    12    46 1   
    27    13    14 ar  
    28    13    33 ar  
    29    14    15 ar  
    30    14    47 1   
    31    15    16 ar  
    32    15    48 1   
    33    16    17 1   
    34    16    32 ar  
    35    17    18 1   
    36    17    49 1   
    37    18    19 2   
    38    19    20 1   
    39    19    32 1   
    40    20    21 ar  
    41    20    31 ar  
    42    21    22 ar  
    43    21    50 1   
    44    22    23 1   
    45    22    25 ar  
    46    23    24 1   
    47    24    51 1   
    48    24    52 1   
    49    24    53 1   
    50    25    26 1   
    51    25    28 ar  
    52    26    27 1   
    53    27    54 1   
    54    27    55 1   
    55    27    56 1   
    56    28    29 1   
    57    28    31 ar  
    58    29    30 1   
    59    30    57 1   
    60    30    58 1   
    61    30    59 1   
    62    31    60 1   
    63    32    33 ar  
    64    33    61 1   
@<TRIPOS>SUBSTRUCTURE
     1 1LE         1 TEMP              0 ****  ****    0 ROOT
