@<TRIPOS>MOLECULE
1LE
   61    63     1     0     0
SMALL
bcc


@<TRIPOS>ATOM
      1 O01          0.0000     0.0000     0.0000 o          1 1LE      -0.628100
      2 C02          1.2130     0.0000     0.0000 c          1 1LE       0.573100
      3 N03          1.8880     0.0000     1.1660 ns         1 1LE      -0.179900
      4 C04          1.1560     0.0010     2.4350 c3         1 1LE       0.003400
      5 C05          0.2770     1.2500     2.5160 c3         1 1LE      -0.025100
      6 C06          0.2750    -1.2480     2.5170 c3         1 1LE      -0.025100
      7 C07          2.1510    -0.0000     3.5980 c3         1 1LE       0.219400
      8 O08          1.4360     0.0010     4.8360 oh         1 1LE      -0.579800
      9 C09          1.9660    -0.0080    -1.3060 c3         1 1LE       0.012400
     10 C10          2.8130     1.1940    -1.3900 c1         1 1LE       0.192700
     11 N11          3.4670     2.1210    -1.4350 n1         1 1LE      -0.374800
     12 C12          0.9710    -0.0120    -2.4680 c3         1 1LE       0.049900
     13 C13          1.7200    -0.1430    -3.7690 ca         1 1LE      -0.153300
     14 C14          2.1470     0.9980    -4.4360 ca         1 1LE      -0.050000
     15 C15          2.8280     0.9050    -5.6160 ca         1 1LE      -0.110000
     16 C16          3.0990    -0.3470    -6.1640 ca         1 1LE      -0.185200
     17 N17          3.7420    -0.7650    -7.3010 na         1 1LE       0.420900
     18 N18          3.7210    -2.1620    -7.3560 nc         1 1LE      -0.627100
     19 C19          3.0970    -2.6420    -6.3080 cd         1 1LE       0.450500
     20 C20          2.8690    -4.0750    -6.0040 ca         1 1LE      -0.016900
     21 C21          2.8840    -4.5190    -4.6830 ca         1 1LE      -0.227500
     22 C22          2.6710    -5.8570    -4.4010 ca         1 1LE       0.161100
     23 O23          2.6840    -6.2910    -3.1110 os         1 1LE      -0.291900
     24 C24          2.9240    -5.3110    -2.1000 c3         1 1LE       0.240200
     25 C25          2.4420    -6.7590    -5.4350 ca         1 1LE       0.049100
     26 O26          2.2320    -8.0740    -5.1560 os         1 1LE      -0.309900
     27 C27          0.8800    -8.4830    -4.9370 c3         1 1LE       0.251700
     28 C28          2.4280    -6.3180    -6.7530 ca         1 1LE       0.161100
     29 O29          2.2040    -7.2010    -7.7630 os         1 1LE      -0.291900
     30 C30          2.2020    -6.6790    -9.0940 c3         1 1LE       0.240200
     31 C31          2.6350    -4.9790    -7.0390 ca         1 1LE      -0.227500
     32 C32          2.6660    -1.5040    -5.4900 ca         1 1LE      -0.244900
     33 C33          1.9770    -1.3830    -4.2800 ca         1 1LE      -0.021000
     34 H031         2.8880    -0.0340     1.1660 hn         1 1LE       0.172500
     35 H052        -0.0360     1.4050     3.5420 hc         1 1LE       0.024533
     36 H053         0.8410     2.1110     2.1770 hc         1 1LE       0.024533
     37 H051        -0.5960     1.1200     1.8880 hc         1 1LE       0.024533
     38 H063        -0.5830    -1.1290     1.8670 hc         1 1LE       0.024533
     39 H061         0.8460    -2.1140     2.2050 hc         1 1LE       0.024533
     40 H062        -0.0610    -1.3870     3.5380 hc         1 1LE       0.024533
     41 H071         2.7740     0.8840     3.5400 h1         1 1LE      -0.011300
     42 H072         2.7730    -0.8850     3.5410 h1         1 1LE      -0.011300
     43 H081         2.0490    -0.0010     5.5530 ho         1 1LE       0.394000
     44 H091         2.5880    -0.8930    -1.3590 hc         1 1LE       0.050700
     45 H121         0.4100     0.9140    -2.4670 hc         1 1LE       0.042700
     46 H122         0.2910    -0.8480    -2.3580 hc         1 1LE       0.042700
     47 H141         1.9330     1.9740    -4.0180 ha         1 1LE       0.113000
     48 H151         3.1560     1.8030    -6.1260 ha         1 1LE       0.108000
     49 H171         4.1600    -0.1640    -7.9840 hn         1 1LE       0.154700
     50 H211         3.1190    -3.8280    -3.8820 ha         1 1LE       0.135000
     51 H242         2.1190    -4.5850    -2.1020 h1         1 1LE      -0.001967
     52 H243         3.8630    -4.8090    -2.3000 h1         1 1LE      -0.001967
     53 H241         2.9710    -5.7950    -1.1320 h1         1 1LE      -0.001967
     54 H272         0.6890    -8.5420    -3.8720 h1         1 1LE      -0.009633
     55 H273         0.2070    -7.7620    -5.3850 h1         1 1LE      -0.009633
     56 H271         0.7190    -9.4550    -5.3870 h1         1 1LE      -0.009633
     57 H302         3.1640    -6.2290    -9.3070 h1         1 1LE      -0.001967
     58 H303         2.0150    -7.4820    -9.7960 h1         1 1LE      -0.001967
     59 H301         1.4250    -5.9300    -9.1870 h1         1 1LE      -0.001967
     60 H311         2.6240    -4.6360    -8.0660 ha         1 1LE       0.135000
     61 H331         1.5490    -2.2610    -3.8120 ha         1 1LE       0.112000
@<TRIPOS>BOND
     1     1     2 2   
     2     2     3 1   
     3     2     9 1   
     4     3     4 1   
     5     3    34 1   
     6     4     5 1   
     7     4     6 1   
     8     4     7 1   
     9     5    35 1   
    10     5    36 1   
    11     5    37 1   
    12     6    38 1   
    13     6    39 1   
    14     6    40 1   
    15     7     8 1   
    16     7    41 1   
    17     7    42 1   
    18     8    43 1   
    19     9    10 1   
    20     9    12 1   
    21     9    44 1   
    22    10    11 3   
    23    12    13 1   
    24    12    45 1   
    25    12    46 1   
    26    13    14 ar  
    27    13    33 ar  
    28    14    15 ar  
    29    14    47 1   
    30    15    16 ar  
    31    15    48 1   
    32    16    17 1   
    33    16    32 ar  
    34    17    18 1   
    35    17    49 1   
    36    18    19 2   
    37    19    20 1   
    38    19    32 1   
    39    20    21 ar  
    40    20    31 ar  
    41    21    22 ar  
    42    21    50 1   
    43    22    23 1   
    44    22    25 ar  
    45    23    24 1   
    46    24    51 1   
    47    24    52 1   
    48    24    53 1   
    49    25    26 1   
    50    25    28 ar  
    51    26    27 1   
    52    27    54 1   
    53    27    55 1   
    54    27    56 1   
    55    28    29 1   
    56    28    31 ar  
    57    29    30 1   
    58    30    57 1   
    59    30    58 1   
    60    30    59 1   
    61    31    60 1   
    62    32    33 ar  
    63    33    61 1   
@<TRIPOS>SUBSTRUCTURE
     1 1LE         1 TEMP              0 ****  ****    0 ROOT
