@<TRIPOS>MOLECULE
1LF
   53    55     1     0     0
SMALL
bcc


@<TRIPOS>ATOM
      1 N1           0.9510     0.2770     0.2380 ny         1 1LF      -0.686800
      2 C10          4.3830    -1.4250    -2.2500 c3         1 1LF       0.190300
      3 C13          0.1780     1.8010     2.0310 ca         1 1LF      -0.132300
      4 C15          1.1100     3.4550     3.5420 ca         1 1LF      -0.090000
      5 C17         -0.7990     4.0180     2.1710 ca         1 1LF      -0.072000
      6 C01          8.8410     1.0440    -2.9060 c3         1 1LF       0.200100
      7 C02          6.6170     2.0420    -3.2750 ca         1 1LF       0.918900
      8 N02          5.9070     3.2030    -3.6010 nb         1 1LF      -0.791000
      9 C03          4.5680     3.0400    -3.7540 ca         1 1LF       0.727300
     10 C04          3.7590     4.2630    -4.1190 c3         1 1LF      -0.143400
     11 N03          3.8880     1.8560    -3.6210 nb         1 1LF      -0.842000
     12 C05          4.6730     0.7470    -3.3550 ca         1 1LF       0.882900
     13 N04          6.0340     0.7850    -3.1420 nb         1 1LF      -0.806000
     14 N05          4.0640    -0.5540    -3.3660 nh         1 1LF      -0.706300
     15 C06          2.6650    -0.6460    -3.7430 c3         1 1LF       0.190300
     16 C07          1.6810    -0.4050    -2.5900 c3         1 1LF      -0.123900
     17 C08          2.0150    -1.3430    -1.4400 c3         1 1LF      -0.139700
     18 C09          3.4770    -1.2260    -1.0240 c3         1 1LF      -0.123900
     19 C11          1.1120    -1.1500    -0.2450 c          1 1LF       0.547100
     20 O1           0.5100    -2.0090     0.3760 o          1 1LF      -0.404100
     21 C12          0.1920     0.3960     1.5220 c3         1 1LF       0.156100
     22 C14          1.1240     2.1710     2.9920 ca         1 1LF      -0.104000
     23 C16          0.1500     4.3770     3.1330 ca         1 1LF      -0.086000
     24 C18         -0.7860     2.7360     1.6200 ca         1 1LF      -0.146300
     25 C1          -1.8510     2.3780     0.5830 c3         1 1LF       0.685200
     26 F01         -2.7260     1.3990     0.9810 f          1 1LF      -0.229967
     27 F02         -1.3220     1.8790    -0.5930 f          1 1LF      -0.229967
     28 F           -2.6420     3.4160     0.1760 f          1 1LF      -0.229967
     29 N01          7.9740     2.1780    -3.0230 nu         1 1LF      -0.834900
     30 H1           1.8830     0.6930     0.3450 hn         1 1LF       0.467300
     31 H2           4.2610    -2.4830    -2.6220 h1         1 1LF       0.091450
     32 H3           5.4550    -1.2980    -1.9300 h1         1 1LF       0.091450
     33 H4           1.8570     3.7320     4.3050 ha         1 1LF       0.168000
     34 H5          -1.5620     4.7490     1.8520 ha         1 1LF       0.178000
     35 H6           8.8300     0.4120    -3.8360 h1         1 1LF       0.053700
     36 H7           9.8850     1.4160    -2.7260 h1         1 1LF       0.053700
     37 H8           8.5260     0.4040    -2.0390 h1         1 1LF       0.053700
     38 H9           8.3890     3.0510    -3.2690 hn         1 1LF       0.456800
     39 H10          4.1990     5.1810    -3.6600 hc         1 1LF       0.069700
     40 H11          3.7750     4.3740    -5.2330 hc         1 1LF       0.069700
     41 H12          2.7000     4.1580    -3.7830 hc         1 1LF       0.069700
     42 H13          2.4310     0.0670    -4.5820 h1         1 1LF       0.091450
     43 H14          2.5160    -1.6950    -4.1350 h1         1 1LF       0.091450
     44 H15          0.6410    -0.6000    -2.9600 hc         1 1LF       0.062700
     45 H16          1.7500     0.6700    -2.2820 hc         1 1LF       0.062700
     46 H17          1.8300    -2.4070    -1.7860 hc         1 1LF       0.128700
     47 H18          3.7270    -2.0130    -0.2660 hc         1 1LF       0.062700
     48 H19          3.6800    -0.2230    -0.5690 hc         1 1LF       0.062700
     49 H20          0.6750    -0.2950     2.2740 hx         1 1LF       0.124700
     50 H21         -0.8590     0.0210     1.3350 hx         1 1LF       0.124700
     51 H22          1.8750     1.4420     3.3370 ha         1 1LF       0.149000
     52 H23          0.1310     5.3910     3.5670 ha         1 1LF       0.172000
     53 H121         0.4530     0.8090    -0.4960 hn         1 1LF       0.467300
@<TRIPOS>BOND
     1     1    19 1   
     2     1    21 1   
     3     1    30 1   
     4     1    53 1   
     5     2    14 1   
     6     2    18 1   
     7     2    31 1   
     8     2    32 1   
     9     3    21 1   
    10     3    22 ar  
    11     3    24 ar  
    12     4    22 ar  
    13     4    23 ar  
    14     4    33 1   
    15     5    23 ar  
    16     5    24 ar  
    17     5    34 1   
    18     6    29 1   
    19     6    35 1   
    20     6    36 1   
    21     6    37 1   
    22     7     8 ar  
    23     7    13 ar  
    24     7    29 1   
    25     8     9 ar  
    26     9    10 1   
    27     9    11 ar  
    28    10    39 1   
    29    10    40 1   
    30    10    41 1   
    31    11    12 ar  
    32    12    13 ar  
    33    12    14 1   
    34    14    15 1   
    35    15    16 1   
    36    15    42 1   
    37    15    43 1   
    38    16    17 1   
    39    16    44 1   
    40    16    45 1   
    41    17    18 1   
    42    17    19 1   
    43    17    46 1   
    44    18    47 1   
    45    18    48 1   
    46    19    20 2   
    47    21    49 1   
    48    21    50 1   
    49    22    51 1   
    50    23    52 1   
    51    24    25 1   
    52    25    26 1   
    53    25    27 1   
    54    25    28 1   
    55    29    38 1   
@<TRIPOS>SUBSTRUCTURE
     1 1LF         1 TEMP              0 ****  ****    0 ROOT
