@<TRIPOS>MOLECULE
molecule
   52    54     1     0     0
SMALL
bcc


@<TRIPOS>ATOM
      1 N1           0.0000     0.0000     0.0000 ns         1 1LF      -0.581900
      2 C10          2.1660    -2.4940    -1.3230 c3         1 1LF       0.169300
      3 C13         -2.2140     0.0070     0.9940 ca         1 1LF      -0.066300
      4 C15         -4.2840     1.1970     0.8180 ca         1 1LF      -0.102000
      5 C17         -4.2200    -1.1610     0.4080 ca         1 1LF      -0.085000
      6 C01          3.2070    -7.9600     1.2670 c3         1 1LF       0.236100
      7 C02          3.6230    -5.7100     0.3490 ca         1 1LF       0.985900
      8 N02          4.9140    -5.8540     0.6440 nb         1 1LF      -0.870000
      9 C03          5.7680    -4.8830     0.3720 ca         1 1LF       0.770300
     10 C04          7.2270    -5.0490     0.7060 c3         1 1LF      -0.124400
     11 N03          5.3440    -3.7650    -0.1950 nb         1 1LF      -0.846000
     12 C05          4.0560    -3.6150    -0.4920 ca         1 1LF       0.940900
     13 N04          3.1950    -4.5920    -0.2250 nb         1 1LF      -0.896000
     14 N05          3.6140    -2.4480    -1.0820 nh         1 1LF      -0.684300
     15 C06          3.9810    -1.2780    -0.2740 c3         1 1LF       0.169300
     16 C07          3.6070     0.0010    -1.0270 c3         1 1LF      -0.067900
     17 C08          2.1010     0.0010    -1.3050 c3         1 1LF      -0.150700
     18 C09          1.7370    -1.2530    -2.1070 c3         1 1LF      -0.067900
     19 C11          1.3480     0.0000     0.0000 c          1 1LF       0.664100
     20 O1           1.9540     0.0000     1.0500 o          1 1LF      -0.612100
     21 C12         -0.7330     0.0000     1.2690 c3         1 1LF       0.141300
     22 C14         -2.9250     1.1900     1.0700 ca         1 1LF      -0.118000
     23 C16         -4.9320     0.0200     0.4890 ca         1 1LF      -0.127000
     24 C18         -2.8610    -1.1680     0.6600 ca         1 1LF      -0.170300
     25 C1          -2.0840    -2.4560     0.5710 c3         1 1LF       0.674200
     26 F01         -1.4960    -2.7340     1.8100 f          1 1LF      -0.220633
     27 F02         -2.9480    -3.4990     0.2200 f          1 1LF      -0.220633
     28 F           -1.0850    -2.3320    -0.4010 f          1 1LF      -0.220633
     29 H1          -0.5000     0.0600    -0.8650 hn         1 1LF       0.320500
     30 H2           1.9250    -3.3820    -1.8950 h1         1 1LF       0.068450
     31 H3           1.6450    -2.5180    -0.3730 h1         1 1LF       0.068450
     32 H4          -4.8420     2.1230     0.8790 ha         1 1LF       0.140000
     33 H5          -4.7270    -2.0830     0.1480 ha         1 1LF       0.153000
     34 H6           3.6390    -7.7280     2.2330 h1         1 1LF       0.042033
     35 H7           2.3820    -8.6500     1.3970 h1         1 1LF       0.042033
     36 H8           3.9600    -8.4130     0.6330 h1         1 1LF       0.042033
     37 H9           1.7640    -6.6190     0.4090 hn         1 1LF       0.456800
     38 H10          7.4550    -6.1020     0.8120 hc         1 1LF       0.061700
     39 H11          7.8300    -4.6260    -0.0880 hc         1 1LF       0.061700
     40 H12          7.4440    -4.5370     1.6360 hc         1 1LF       0.061700
     41 H13          3.4470    -1.3100     0.6680 h1         1 1LF       0.068450
     42 H14          5.0480    -1.2880    -0.0910 h1         1 1LF       0.068450
     43 H15          3.8620     0.8630    -0.4230 hc         1 1LF       0.057200
     44 H16          4.1470     0.0380    -1.9660 hc         1 1LF       0.057200
     45 H17          1.8410     0.8830    -1.8780 hc         1 1LF       0.064700
     46 H18          0.6660    -1.2800    -2.2670 hc         1 1LF       0.057200
     47 H19          2.2510    -1.2330    -3.0600 hc         1 1LF       0.057200
     48 H20         -0.4740    -0.8860     1.8360 h1         1 1LF       0.071200
     49 H21         -0.4670     0.8830     1.8390 h1         1 1LF       0.071200
     50 H22         -2.4180     2.1110     1.3280 ha         1 1LF       0.145000
     51 H23         -5.9970     0.0250     0.2910 ha         1 1LF       0.141000
     52 N01          2.7330    -6.7260     0.6340 nu         1 1LF      -0.894900
@<TRIPOS>BOND
     1    10     9 1   
     2     9     8 ar  
     3     9    11 ar  
     4     8     7 ar  
     5    11    12 ar  
     6     7    52 1   
     7     7    13 ar  
     8    12    13 ar  
     9    12    14 1   
    10     6    52 1   
    11    15    14 1   
    12    15    16 1   
    13    14     2 1   
    14    16    17 1   
    15     2    18 1   
    16     4    22 ar  
    17     4    23 ar  
    18    17    18 1   
    19    17    19 1   
    20    22     3 ar  
    21    23     5 ar  
    22    19     1 1   
    23    19    20 2   
    24     1    21 1   
    25     3    21 1   
    26     3    24 ar  
    27     5    24 ar  
    28    24    25 1   
    29    25    27 1   
    30    25    26 1   
    31    25    28 1   
    32     1    29 1   
    33     2    30 1   
    34     2    31 1   
    35     4    32 1   
    36     5    33 1   
    37     6    34 1   
    38     6    35 1   
    39     6    36 1   
    40    52    37 1   
    41    10    38 1   
    42    10    39 1   
    43    10    40 1   
    44    15    41 1   
    45    15    42 1   
    46    16    43 1   
    47    16    44 1   
    48    17    45 1   
    49    18    46 1   
    50    18    47 1   
    51    21    48 1   
    52    21    49 1   
    53    22    50 1   
    54    23    51 1   
@<TRIPOS>SUBSTRUCTURE
     1 1LF         1 TEMP              0 ****  ****    0 ROOT
