@<TRIPOS>MOLECULE
molecule
   50    53     1     0     0
SMALL
bcc


@<TRIPOS>ATOM
      1 C4           0.0000     0.0000     0.0000 c3         1 1LG      -0.034100
      2 C5           3.7110     0.0060     1.0560 cc         1 1LG       0.108500
      3 C6           1.7270     0.0000     2.5050 ch         1 1LG       0.250800
      4 C8           1.6610    -0.0140    -2.5480 c3         1 1LG       0.006900
      5 C13          5.9890     0.0100     1.7010 c          1 1LG       0.606700
      6 C17          8.5990     0.0150     2.5240 ca         1 1LG       0.103400
      7 C22          8.7380     0.5750     4.9200 ca         1 1LG       0.162400
      8 C28          7.7510    -1.2280     8.5680 c3         1 1LG       0.112300
      9 C1           1.5240     0.0000     0.0000 cd         1 1LG      -0.080300
     10 C2           2.3320     0.0000     1.2070 cd         1 1LG      -0.119000
     11 C3           2.2200    -0.0060    -1.1590 cc         1 1LG      -0.056400
     12 S7           3.9200    -0.0030    -0.6650 ss         1 1LG      -0.015800
     13 C9          -0.4920     0.4500    -1.3770 c3         1 1LG      -0.071400
     14 N10          4.6860     0.0110     2.0420 ns         1 1LG      -0.350100
     15 N11          1.2630     0.0100     3.5410 n1         1 1LG      -0.369800
     16 C12          0.1750    -0.3920    -2.4690 c3         1 1LG      -0.072400
     17 C14          7.0970     0.0150     2.7870 ca         1 1LG      -0.084600
     18 O15          6.5090    -0.2450     0.4580 o          1 1LG      -0.607100
     19 C16          6.6550     0.0210     4.1210 ca         1 1LG      -0.088000
     20 C18          7.5410     0.0260     5.1050 ca         1 1LG      -0.064500
     21 C19          9.3130     0.0200     3.5560 ca         1 1LG      -0.147000
     22 S21          6.6300     0.3530     6.7270 sy         1 1LG       0.745200
     23 N23          6.6320    -1.0930     7.7560 n3         1 1LG      -0.652500
     24 O24          7.1520     1.7700     7.1770 o          1 1LG      -0.487800
     25 O25          5.1140     0.5090     6.3590 o          1 1LG      -0.487800
     26 Cl26        10.2800     0.6560     5.8560 cl         1 1LG      -0.097400
     27 C27          5.4900    -2.0700     7.3570 c3         1 1LG       0.112300
     28 C29          5.2370    -2.7030     9.0820 c3         1 1LG       0.261400
     29 C30          7.3530    -1.7850     9.8950 c3         1 1LG       0.261400
     30 O31          6.1310    -2.9040     9.5540 os         1 1LG      -0.344600
     31 H41         -0.3080     0.9400     0.4410 hc         1 1LG       0.065200
     32 H42         -0.3080    -0.8660     0.5740 hc         1 1LG       0.065200
     33 H81          2.1540    -0.8090    -3.0940 hc         1 1LG       0.054700
     34 H82          1.9260     0.9280    -3.0130 hc         1 1LG       0.054700
     35 H281         8.4570    -1.8990     8.0950 h1         1 1LG       0.065450
     36 H282         8.2090    -0.2570     8.7100 h1         1 1LG       0.065450
     37 H91         -1.4970     0.0680    -1.5050 hc         1 1LG       0.054700
     38 H92         -0.4190     1.5300    -1.4130 hc         1 1LG       0.054700
     39 H10          4.4740    -0.3340     2.9570 hn         1 1LG       0.355500
     40 H121        -0.3180    -0.0590    -3.3750 hc         1 1LG       0.049700
     41 H122         0.0940    -1.4700    -2.3960 hc         1 1LG       0.049700
     42 H16          5.6670    -0.3780     4.3160 ha         1 1LG       0.163000
     43 H19         10.3730     0.1800     3.3990 ha         1 1LG       0.160000
     44 H271         4.6190    -1.5450     6.9850 h1         1 1LG       0.065450
     45 H272         5.8360    -2.8460     6.6860 h1         1 1LG       0.065450
     46 H291         4.6510    -3.6120     9.0390 h1         1 1LG       0.038950
     47 H292         4.6990    -1.9570     9.6540 h1         1 1LG       0.038950
     48 H301         8.1960    -2.2820    10.3610 h1         1 1LG       0.038950
     49 H302         6.9730    -0.9970    10.5340 h1         1 1LG       0.038950
     50 Cl20         9.0020    -0.0190     0.7790 cl         1 1LG      -0.045400
@<TRIPOS>BOND
     1     1     9 1
     2     1    13 1
     3     1    31 1
     4     1    32 1
     5     2    10 2
     6     2    12 1
     7     2    14 1
     8     3    10 1
     9     3    15 3
    10     4    11 1
    11     4    16 1
    12     4    33 1
    13     4    34 1
    14     5    14 1
    15     5    17 1
    16     5    18 2
    17     6    17 ar
    18     6    21 ar
    19     6    50 1
    20     7    20 ar
    21     7    21 ar
    22     7    26 1
    23     8    23 1
    24     8    29 1
    25     8    35 1
    26     8    36 1
    27     9    10 1
    28     9    11 2
    29    11    12 1
    30    13    16 1
    31    13    37 1
    32    13    38 1
    33    14    39 1
    34    16    40 1
    35    16    41 1
    36    17    19 ar
    37    19    20 ar
    38    19    42 1
    39    20    22 1
    40    21    43 1
    41    22    23 1
    42    22    24 2
    43    22    25 2
    44    23    27 1
    45    27    28 1
    46    27    44 1
    47    27    45 1
    48    28    30 1
    49    28    46 1
    50    28    47 1
    51    29    30 1
    52    29    48 1
    53    29    49 1
@<TRIPOS>SUBSTRUCTURE
     1 1LG         1 TEMP              0 ****  ****    0 ROOT
