@<TRIPOS>MOLECULE
1LH
   57    58     1     0     0
SMALL
bcc


@<TRIPOS>ATOM
      1 C1           0.0000     0.0000     0.0000 c3         1 1LH      -0.007100
      2 C2           1.5300     0.0000     0.0000 c3         1 1LH      -0.041400
      3 C3           2.0390     0.0000     1.4420 c3         1 1LH       0.026800
      4 N5           1.6290    -1.2430     2.1070 ny         1 1LH      -0.013000
      5 C8           1.9950    -1.1830     3.5290 c3         1 1LH      -0.042500
      6 C10          1.2360    -0.0380     4.2020 c3         1 1LH      -0.008100
      7 C11          1.6300    -2.5050     4.2060 c3         1 1LH      -0.108400
      8 C12          2.4830    -3.6110     3.6410 c          1 1LH       0.573100
      9 O13          3.3790    -3.3510     2.8670 o          1 1LH      -0.651100
     10 N14          2.2500    -4.8910     3.9960 ns         1 1LH      -0.170900
     11 C15          3.0790    -5.9660     3.4470 c3         1 1LH       0.048000
     12 C16          2.6080    -7.3090     4.0080 c3         1 1LH      -0.063200
     13 N17          3.4400    -8.3880     3.4580 nz         1 1LH       0.102400
     14 C21          3.5430     0.0980     1.4430 ca         1 1LH      -0.210300
     15 C22          4.3100    -1.0520     1.3860 ca         1 1LH      -0.113000
     16 C23          5.6900    -0.9670     1.3870 ca         1 1LH      -0.071000
     17 C24          6.3080     0.2690     1.4440 ca         1 1LH      -0.037600
     18 Cl2          8.0410     0.3740     1.4450 cl         1 1LH       0.093600
     19 C26          5.5420     1.4240     1.5020 ca         1 1LH       0.125100
     20 O27          6.1480     2.6410     1.5580 os         1 1LH      -0.204200
     21 C28          6.4280     3.2680     0.3860 ca         1 1LH       0.111100
     22 C29          7.0460     4.5120     0.3940 ca         1 1LH      -0.160000
     23 C30          7.3310     5.1470    -0.7980 ca         1 1LH      -0.050000
     24 C31          7.0020     4.5470    -2.0000 ca         1 1LH      -0.112000
     25 C32          6.3870     3.3080    -2.0110 ca         1 1LH      -0.050000
     26 C33          6.1050     2.6650    -0.8210 ca         1 1LH      -0.160000
     27 C34          4.1560     1.3360     1.4950 ca         1 1LH       0.141900
     28 F35          3.4070     2.4600     1.5450 f          1 1LH      -0.101900
     29 H3           1.6220     0.8480     1.9720 hx         1 1LH       0.105700
     30 HN5          0.6380    -1.3550     2.0220 hn         1 1LH       0.257300
     31 HN5A         2.0900    -2.0200     1.6760 hn         1 1LH       0.257300
     32 H8           3.0610    -1.0120     3.6200 hx         1 1LH       0.122700
     33 HN17         3.3570    -8.3980     2.4600 hn         1 1LH       0.231800
     34 HN1A         4.3950    -8.2360     3.7120 hn         1 1LH       0.231800
     35 HN1B         3.1320    -9.2670     3.8260 hn         1 1LH       0.231800
     36 H1          -0.3610    -0.9750     0.3030 hc         1 1LH       0.017700
     37 H1A         -0.3610     0.2260    -0.9960 hc         1 1LH       0.017700
     38 H1B         -0.3610     0.7500     0.6930 hc         1 1LH       0.017700
     39 H2           1.8910    -0.8840    -0.5110 hc         1 1LH       0.055200
     40 H2A          1.8910     0.8850    -0.5110 hc         1 1LH       0.055200
     41 H10          1.0280    -0.3000     5.2330 hc         1 1LH       0.042033
     42 H10A         0.3030     0.1350     3.6790 hc         1 1LH       0.042033
     43 H10B         1.8380     0.8620     4.1730 hc         1 1LH       0.042033
     44 H11          1.8030    -2.4240     5.2730 hc         1 1LH       0.067700
     45 H11A         0.5850    -2.7270     4.0260 hc         1 1LH       0.067700
     46 HN14         1.5180    -5.1040     4.6450 hn         1 1LH       0.197500
     47 H15          4.1140    -5.8020     3.7240 h1         1 1LH       0.047200
     48 H15A         2.9910    -5.9750     2.3680 h1         1 1LH       0.047200
     49 H16          2.6960    -7.3010     5.0870 hx         1 1LH       0.091700
     50 H16A         1.5740    -7.4730     3.7310 hx         1 1LH       0.091700
     51 H22          3.8280    -2.0210     1.3410 ha         1 1LH       0.120000
     52 H23          6.2870    -1.8700     1.3420 ha         1 1LH       0.130000
     53 H29          7.3040     4.9830     1.3350 ha         1 1LH       0.112500
     54 H30          7.8130     6.1170    -0.7920 ha         1 1LH       0.112000
     55 H31          7.2250     5.0480    -2.9340 ha         1 1LH       0.118000
     56 H32          6.1320     2.8390    -2.9530 ha         1 1LH       0.112000
     57 H33          5.6230     1.6950    -0.8300 ha         1 1LH       0.112500
@<TRIPOS>BOND
     1     1     2 1   
     2     1    36 1   
     3     1    37 1   
     4     1    38 1   
     5     2     3 1   
     6     2    39 1   
     7     2    40 1   
     8     3     4 1   
     9     3    14 1   
    10     3    29 1   
    11     4     5 1   
    12     4    30 1   
    13     4    31 1   
    14     5     6 1   
    15     5     7 1   
    16     5    32 1   
    17     6    41 1   
    18     6    42 1   
    19     6    43 1   
    20     7     8 1   
    21     7    44 1   
    22     7    45 1   
    23     8     9 2   
    24     8    10 1   
    25    10    11 1   
    26    10    46 1   
    27    11    12 1   
    28    11    47 1   
    29    11    48 1   
    30    12    13 1   
    31    12    49 1   
    32    12    50 1   
    33    13    33 1   
    34    13    34 1   
    35    13    35 1   
    36    14    15 ar  
    37    14    27 ar  
    38    15    16 ar  
    39    15    51 1   
    40    16    17 ar  
    41    16    52 1   
    42    17    18 1   
    43    17    19 ar  
    44    19    20 1   
    45    19    27 ar  
    46    20    21 1   
    47    21    22 ar  
    48    21    26 ar  
    49    22    23 ar  
    50    22    53 1   
    51    23    24 ar  
    52    23    54 1   
    53    24    25 ar  
    54    24    55 1   
    55    25    26 ar  
    56    25    56 1   
    57    26    57 1   
    58    27    28 1   
@<TRIPOS>SUBSTRUCTURE
     1 1LH         1 TEMP              0 ****  ****    0 ROOT
