@<TRIPOS>MOLECULE
1LH
   58    59     1     0     0
SMALL
bcc


@<TRIPOS>ATOM
      1 C1           0.4890     0.5330    -0.5660 c3         1 1LH      -0.105100
      2 C2           1.9460     0.4840    -0.1780 c3         1 1LH      -0.099400
      3 C3           2.0740     0.2470     1.3360 c3         1 1LH       0.213800
      4 N5           3.4900    -0.2150     1.7030 ny         1 1LH      -0.794000
      5 C8           3.7860    -1.6360     1.3390 c3         1 1LH       0.129500
      6 C10          5.2210    -1.8100     0.8540 c3         1 1LH      -0.153100
      7 C11          3.4610    -2.6490     2.4540 c3         1 1LH      -0.179400
      8 C12          4.3950    -2.5620     3.6270 c          1 1LH       0.559100
      9 O13          4.9150    -1.5710     4.1050 o          1 1LH      -0.385100
     10 N14          4.7020    -3.8950     4.3360 ny         1 1LH      -0.683800
     11 C15          5.5460    -3.7310     5.5540 c3         1 1LH       0.075800
     12 C16          5.8710    -5.0770     6.2400 c3         1 1LH       0.078800
     13 N17          6.7220    -4.9200     7.4490 nz         1 1LH      -0.834600
     14 C21          1.7520     1.4890     2.1080 ca         1 1LH      -0.223300
     15 C22          0.5460     1.5610     2.8130 ca         1 1LH      -0.103000
     16 C23          0.1430     2.7540     3.4020 ca         1 1LH      -0.100000
     17 C24          0.9280     3.9130     3.3120 ca         1 1LH       0.023400
     18 Cl2          0.3260     5.3340     3.9770 cl         1 1LH       0.032600
     19 C26          2.1710     3.8560     2.6490 ca         1 1LH       0.139100
     20 O27          3.0400     4.8880     2.3990 os         1 1LH      -0.222200
     21 C28          3.1650     5.9160     3.3480 ca         1 1LH       0.047100
     22 C29          3.6070     5.6500     4.6480 ca         1 1LH      -0.129000
     23 C30          3.8750     6.7260     5.4920 ca         1 1LH      -0.105500
     24 C31          3.7110     8.0370     5.0370 ca         1 1LH      -0.104000
     25 C32          3.2750     8.2820     3.7340 ca         1 1LH      -0.105500
     26 C33          2.9920     7.2220     2.8720 ca         1 1LH      -0.129000
     27 C34          2.5780     2.6320     2.0510 ca         1 1LH       0.092900
     28 F35          3.7700     2.5760     1.4050 f          1 1LH      -0.140900
     29 H3           1.3810    -0.5920     1.6450 hx         1 1LH       0.086700
     30 HN5          3.6410    -0.0510     2.7030 hn         1 1LH       0.466300
     31 HN5A         4.1430     0.4060     1.1890 hn         1 1LH       0.466300
     32 H8           3.0890    -1.9030     0.4740 hx         1 1LH       0.158700
     33 HN17         6.2570    -4.3400     8.1630 hn         1 1LH       0.494133
     34 HN1A         6.9020    -5.8550     7.8580 hn         1 1LH       0.494133
     35 HN1B         7.6290    -4.4910     7.2160 hn         1 1LH       0.494133
     36 H1          -0.0060    -0.4550    -0.4080 hc         1 1LH       0.070700
     37 H1A          0.4040     0.8000    -1.6510 hc         1 1LH       0.070700
     38 H1B         -0.0570     1.3080     0.0270 hc         1 1LH       0.070700
     39 H2           2.4540    -0.3320    -0.7570 hc         1 1LH       0.073700
     40 H2A          2.4420     1.4580    -0.4450 hc         1 1LH       0.073700
     41 H10          5.4290    -1.1510    -0.0310 hc         1 1LH       0.092700
     42 H10A         5.3710    -2.8650     0.5130 hc         1 1LH       0.092700
     43 H10B         5.9610    -1.5660     1.6540 hc         1 1LH       0.092700
     44 H11          2.4120    -2.4860     2.8470 hc         1 1LH       0.142200
     45 H11A         3.4820    -3.6690     1.9730 hc         1 1LH       0.142200
     46 HN14         5.1800    -4.5100     3.6610 hn         1 1LH       0.479300
     47 H15          6.4990    -3.2040     5.2430 hx         1 1LH       0.142700
     48 H15A         4.9910    -3.0470     6.2660 hx         1 1LH       0.142700
     49 H16          6.4220    -5.7610     5.5240 hx         1 1LH       0.141200
     50 H16A         4.9160    -5.5950     6.5630 hx         1 1LH       0.141200
     51 H22         -0.1180     0.6840     2.8690 ha         1 1LH       0.148000
     52 H23         -0.8290     2.7990     3.9280 ha         1 1LH       0.187000
     53 H29          3.7400     4.6170     4.9930 ha         1 1LH       0.142500
     54 H30          4.2220     6.5420     6.5210 ha         1 1LH       0.156500
     55 H31          3.9280     8.8820     5.7100 ha         1 1LH       0.161000
     56 H32          3.1520     9.3180     3.3780 ha         1 1LH       0.156500
     57 H33          2.6560     7.3990     1.8400 ha         1 1LH       0.142500
     58 H142         3.8050    -4.3370     4.5880 hn         1 1LH       0.479300
@<TRIPOS>BOND
     1     1     2 1   
     2     1    36 1   
     3     1    37 1   
     4     1    38 1   
     5     2     3 1   
     6     2    39 1   
     7     2    40 1   
     8     3     4 1   
     9     3    14 1   
    10     3    29 1   
    11     4     5 1   
    12     4    30 1   
    13     4    31 1   
    14     5     6 1   
    15     5     7 1   
    16     5    32 1   
    17     6    41 1   
    18     6    42 1   
    19     6    43 1   
    20     7     8 1   
    21     7    44 1   
    22     7    45 1   
    23     8     9 2   
    24     8    10 1   
    25    10    11 1   
    26    10    46 1   
    27    10    58 1   
    28    11    12 1   
    29    11    47 1   
    30    11    48 1   
    31    12    13 1   
    32    12    49 1   
    33    12    50 1   
    34    13    33 1   
    35    13    34 1   
    36    13    35 1   
    37    14    15 ar  
    38    14    27 ar  
    39    15    16 ar  
    40    15    51 1   
    41    16    17 ar  
    42    16    52 1   
    43    17    18 1   
    44    17    19 ar  
    45    19    20 1   
    46    19    27 ar  
    47    20    21 1   
    48    21    22 ar  
    49    21    26 ar  
    50    22    23 ar  
    51    22    53 1   
    52    23    24 ar  
    53    23    54 1   
    54    24    25 ar  
    55    24    55 1   
    56    25    26 ar  
    57    25    56 1   
    58    26    57 1   
    59    27    28 1   
@<TRIPOS>SUBSTRUCTURE
     1 1LH         1 TEMP              0 ****  ****    0 ROOT
