@<TRIPOS>MOLECULE
molecule
   72    74     1     0     0
SMALL
bcc


@<TRIPOS>ATOM
      1 C4           0.0000     0.0000     0.0000 c          1 1LI       0.657100
      2 C7           1.7760    -1.2910     2.0330 c3         1 1LI       0.129100
      3 C8           1.6450     1.2020     2.1090 c3         1 1LI      -0.061100
      4 C10          1.1920     3.0810     0.5190 ca         1 1LI      -0.183000
      5 C13          3.6680     4.2060     1.0320 ca         1 1LI       0.160400
      6 C17          2.0980    -2.4960     1.1450 c3         1 1LI       0.140800
      7 C20          2.1430    -4.9160     1.0790 c3         1 1LI       0.226500
      8 C21          1.5300    -4.8450    -0.3210 c3         1 1LI      -0.088900
      9 C22          0.0060    -4.8070    -0.2090 c3         1 1LI      -0.086400
     10 C24          3.6460    -4.9520     0.9680 ca         1 1LI      -0.081300
     11 C26          6.4020    -5.0210     0.7650 ca         1 1LI      -0.131000
     12 C28          4.4270    -4.4910     2.0110 ca         1 1LI      -0.095000
     13 F16          4.8770     4.7540     1.2850 f          1 1LI      -0.134900
     14 C14          3.2910     3.0360     1.6710 ca         1 1LI      -0.183000
     15 C12          2.8060     4.8120     0.1360 ca         1 1LI      -0.217000
     16 C11          1.5670     4.2510    -0.1210 ca         1 1LI       0.160400
     17 F15          0.7250     4.8420    -0.9950 f          1 1LI      -0.134900
     18 C9           2.0550     2.4750     1.4140 ca         1 1LI      -0.027300
     19 C31          2.0800     0.0000     1.2700 c3         1 1LI       0.113700
     20 N6           1.3480     0.0000     0.0000 ns         1 1LI      -0.582900
     21 O5          -0.6060    -0.0910     1.0460 o          1 1LI      -0.623100
     22 C3          -0.7520     0.1170    -1.3010 c3         1 1LI      -0.170100
     23 O18          2.5770    -1.3440     3.2160 oh         1 1LI      -0.596800
     24 N19          1.7380    -3.7330     1.8500 n7         1 1LI      -0.807200
     25 C34         -0.4860    -6.0720     0.4990 c3         1 1LI      -0.082400
     26 C33          0.1270    -6.1420     1.9000 c3         1 1LI      -0.086400
     27 C32          1.6530    -6.1800     1.7880 c3         1 1LI      -0.088900
     28 C23          4.2430    -5.4530    -0.1740 ca         1 1LI      -0.137000
     29 C27          5.8050    -4.5260     1.9100 ca         1 1LI      -0.076300
     30 C25          5.6210    -5.4870    -0.2750 ca         1 1LI      -0.133000
     31 C29          6.6580    -4.0170     3.0450 c3         1 1LI      -0.022700
     32 C30          8.1290    -4.0460     2.6290 c3         1 1LI      -0.081100
     33 C2           6.2510    -2.5820     3.3830 c3         1 1LI      -0.081100
     34 C1           6.4560    -4.9080     4.2710 c3         1 1LI      -0.081100
     35 H7           0.7280    -1.3120     2.3050 h1         1 1LI       0.068700
     36 H8           0.5690     1.1870     2.2310 hc         1 1LI       0.080700
     37 H8A          2.1190     1.1530     3.0820 hc         1 1LI       0.080700
     38 H10          0.2230     2.6410     0.3190 ha         1 1LI       0.152500
     39 H17          1.5310    -2.4280     0.2240 h1         1 1LI       0.046700
     40 H17A         3.1570    -2.5040     0.9180 h1         1 1LI       0.046700
     41 H21          1.8770    -3.9480    -0.8210 hc         1 1LI       0.052200
     42 H21A         1.8280    -5.7190    -0.8890 hc         1 1LI       0.052200
     43 H22         -0.4270    -4.7600    -1.2010 hc         1 1LI       0.042700
     44 H22A        -0.2910    -3.9360     0.3630 hc         1 1LI       0.042700
     45 H26          7.4820    -5.0480     0.6850 ha         1 1LI       0.134000
     46 H28          3.9600    -4.1030     2.9080 ha         1 1LI       0.160000
     47 H14          3.9590     2.5710     2.3860 ha         1 1LI       0.152500
     48 H12          3.1000     5.7270    -0.3650 ha         1 1LI       0.159000
     49 H31          3.1430     0.0620     1.0740 h1         1 1LI       0.075700
     50 HN6          1.8490    -0.0220    -0.8660 hn         1 1LI       0.321500
     51 H3          -0.0690     0.4140    -2.0870 hc         1 1LI       0.062367
     52 H3A         -1.5330     0.8620    -1.2010 hc         1 1LI       0.062367
     53 H3B         -1.1950    -0.8390    -1.5490 hc         1 1LI       0.062367
     54 HO18         2.0170    -1.3570     3.9740 ho         1 1LI       0.407000
     55 HN19         0.7490    -3.7560     2.0010 hn         1 1LI       0.359800
     56 H34         -1.5660    -6.0420     0.5800 hc         1 1LI       0.043200
     57 H34A        -0.1840    -6.9430    -0.0700 hc         1 1LI       0.043200
     58 H33         -0.2190    -7.0390     2.3990 hc         1 1LI       0.042700
     59 H33A        -0.1700    -5.2690     2.4670 hc         1 1LI       0.042700
     60 H32          1.9500    -7.0510     1.2170 hc         1 1LI       0.052200
     61 H32A         2.0860    -6.2270     2.7800 hc         1 1LI       0.052200
     62 H23          3.6310    -5.8190    -0.9900 ha         1 1LI       0.128000
     63 H25          6.0890    -5.8770    -1.1710 ha         1 1LI       0.126000
     64 H30          8.4290    -5.0680     2.4310 hc         1 1LI       0.036922
     65 H30A         8.7380    -3.6390     3.4280 hc         1 1LI       0.036922
     66 H30B         8.2640    -3.4500     1.7340 hc         1 1LI       0.036922
     67 H2           7.0220    -2.1220     3.9900 hc         1 1LI       0.036922
     68 H2A          5.3170    -2.5910     3.9320 hc         1 1LI       0.036922
     69 H2B          6.1270    -2.0160     2.4680 hc         1 1LI       0.036922
     70 H1           5.4700    -4.7340     4.6860 hc         1 1LI       0.036922
     71 H1A          7.2070    -4.6730     5.0160 hc         1 1LI       0.036922
     72 H1B          6.5480    -5.9480     3.9820 hc         1 1LI       0.036922
@<TRIPOS>BOND
     1     1    20 1
     2     1    21 2
     3     1    22 1
     4     2     6 1
     5     2    19 1
     6     2    23 1
     7     3    18 1
     8     3    19 1
     9     4    16 ar
    10     4    18 ar
    11     5    13 1
    12     5    14 ar
    13     5    15 ar
    14     6    24 1
    15     7     8 1
    16     7    10 1
    17     7    24 1
    18     7    27 1
    19     8     9 1
    20     9    25 1
    21    10    12 ar
    22    10    28 ar
    23    11    29 ar
    24    11    30 ar
    25    12    29 ar
    26    14    18 ar
    27    15    16 ar
    28    16    17 1
    29    19    20 1
    30    25    26 1
    31    26    27 1
    32    28    30 ar
    33    29    31 1
    34    31    32 1
    35    31    33 1
    36    31    34 1
    37     2    35 1
    38     3    36 1
    39     3    37 1
    40     4    38 1
    41     6    39 1
    42     6    40 1
    43     8    41 1
    44     8    42 1
    45     9    43 1
    46     9    44 1
    47    11    45 1
    48    12    46 1
    49    14    47 1
    50    15    48 1
    51    19    49 1
    52    20    50 1
    53    22    51 1
    54    22    52 1
    55    22    53 1
    56    23    54 1
    57    24    55 1
    58    25    56 1
    59    25    57 1
    60    26    58 1
    61    26    59 1
    62    27    60 1
    63    27    61 1
    64    28    62 1
    65    30    63 1
    66    32    64 1
    67    32    65 1
    68    32    66 1
    69    33    67 1
    70    33    68 1
    71    33    69 1
    72    34    70 1
    73    34    71 1
    74    34    72 1
@<TRIPOS>SUBSTRUCTURE
     1 1LI         1 TEMP              0 ****  ****    0 ROOT
