@<TRIPOS>MOLECULE
1LI
   74    76     1     0     0
SMALL
bcc


@<TRIPOS>ATOM
      1 C4           2.7520    -0.7220    -1.7440 c          1 1LI       0.570100
      2 C7           2.3410     1.5660     0.5180 c3         1 1LI       0.099100
      3 C8           0.6170    -0.1130     1.3970 c3         1 1LI      -0.059100
      4 C10          0.4320    -2.5860     1.6650 ca         1 1LI      -0.207000
      5 C13         -2.0230    -2.6070     0.3120 ca         1 1LI       0.189400
      6 C17          1.4720     2.6550     1.1800 c3         1 1LI       0.076800
      7 C20          1.4060     4.9650     2.2580 c3         1 1LI       0.239500
      8 C21          0.0620     5.2460     1.5620 c3         1 1LI      -0.094400
      9 C22         -0.6830     6.3890     2.2310 c3         1 1LI      -0.077400
     10 C24          1.2970     4.3870     3.6430 ca         1 1LI      -0.174300
     11 C26          1.1510     3.3800     6.2560 ca         1 1LI      -0.080000
     12 C28          2.4360     4.3440     4.4610 ca         1 1LI      -0.127000
     13 F16         -3.2020    -2.6010    -0.3410 f          1 1LI      -0.096900
     14 C14         -1.3190    -1.3970     0.4810 ca         1 1LI      -0.207000
     15 C12         -1.5060    -3.8140     0.8140 ca         1 1LI      -0.177000
     16 C11         -0.2760    -3.7930     1.4940 ca         1 1LI       0.189400
     17 F15          0.2400    -4.9380     1.9850 f          1 1LI      -0.096900
     18 C9          -0.1010    -1.3970     1.1610 ca         1 1LI      -0.112300
     19 C31          1.4680     0.3190     0.1910 c3         1 1LI       0.137500
     20 N6           2.3290    -0.8220    -0.2840 ny         1 1LI      -0.696800
     21 O5           2.9140     0.4090    -2.1720 o          1 1LI      -0.428100
     22 C3           2.9110    -2.0220    -2.4510 c3         1 1LI      -0.193100
     23 O18          3.3500     1.1550     1.4240 oh         1 1LI      -0.600800
     24 N19          2.2060     3.9200     1.4120 ny         1 1LI      -0.784000
     25 C34          0.1490     7.6510     2.2800 c3         1 1LI      -0.090400
     26 C33          1.4860     7.3870     2.9360 c3         1 1LI      -0.077400
     27 C32          2.2310     6.2740     2.2240 c3         1 1LI      -0.094400
     28 C23          0.0850     3.8940     4.1420 ca         1 1LI      -0.119000
     29 C27          2.3790     3.8490     5.7710 ca         1 1LI      -0.038300
     30 C25          0.0180     3.4020     5.4440 ca         1 1LI      -0.119000
     31 C29          3.6290     3.8530     6.6140 c3         1 1LI      -0.019700
     32 C30          4.1260     5.2880     6.7730 c3         1 1LI      -0.090767
     33 C2           3.3890     3.2760     8.0050 c3         1 1LI      -0.090767
     34 C1           4.7070     3.0150     5.9310 c3         1 1LI      -0.090767
     35 H7           2.7860     1.9540    -0.4450 h1         1 1LI       0.092700
     36 H8          -0.1420     0.6970     1.5810 hc         1 1LI       0.096700
     37 H8A          1.2710    -0.1880     2.3090 hc         1 1LI       0.096700
     38 H10          1.3610    -2.5930     2.2550 ha         1 1LI       0.158000
     39 H17          0.5840     2.8670     0.5200 hx         1 1LI       0.127700
     40 H17A         1.1120     2.2960     2.1920 hx         1 1LI       0.127700
     41 H21         -0.5880     4.3320     1.5670 hc         1 1LI       0.056950
     42 H21A         0.2540     5.5270     0.4910 hc         1 1LI       0.056950
     43 H22         -1.6270     6.5790     1.6550 hc         1 1LI       0.076200
     44 H22A        -0.9760     6.0940     3.2730 hc         1 1LI       0.076200
     45 H26          1.0600     2.9970     7.2870 ha         1 1LI       0.171000
     46 H28          3.4010     4.7270     4.0940 ha         1 1LI       0.133000
     47 H14         -1.7610    -0.4640     0.0990 ha         1 1LI       0.158000
     48 H12         -2.0650    -4.7580     0.6930 ha         1 1LI       0.202000
     49 H31          0.7850     0.5930    -0.6690 hx         1 1LI       0.119700
     50 HN6          1.8090    -1.7050    -0.1440 hn         1 1LI       0.477800
     51 H3           3.4110    -1.8300    -3.4410 hc         1 1LI       0.127700
     52 H3A          3.5380    -2.7430    -1.8670 hc         1 1LI       0.127700
     53 H3B          1.9070    -2.4810    -2.6470 hc         1 1LI       0.127700
     54 HO18         4.1870     1.5630     1.1620 ho         1 1LI       0.441000
     55 HN19         2.4500     4.3550     0.5180 hn         1 1LI       0.443800
     56 H34          0.3040     8.0500     1.2420 hc         1 1LI       0.071700
     57 H34A        -0.4040     8.4380     2.8590 hc         1 1LI       0.071700
     58 H33          2.1160     8.3160     2.9050 hc         1 1LI       0.076200
     59 H33A         1.3380     7.1130     4.0140 hc         1 1LI       0.076200
     60 H32          3.2330     6.1340     2.7040 hc         1 1LI       0.056950
     61 H32A         2.3980     6.5840     1.1560 hc         1 1LI       0.056950
     62 H23         -0.8350     3.9110     3.5380 ha         1 1LI       0.142000
     63 H25         -0.9450     3.0380     5.8400 ha         1 1LI       0.163000
     64 H30          5.0430     5.3000     7.4110 hc         1 1LI       0.045589
     65 H30A         4.3800     5.7340     5.7820 hc         1 1LI       0.045589
     66 H30B         3.3450     5.9180     7.2620 hc         1 1LI       0.045589
     67 H2           4.3440     3.2930     8.5850 hc         1 1LI       0.045589
     68 H2A          3.0390     2.2180     7.9410 hc         1 1LI       0.045589
     69 H2B          2.6340     3.8820     8.5600 hc         1 1LI       0.045589
     70 H1           4.3610     1.9620     5.8050 hc         1 1LI       0.045589
     71 H1A          4.9620     3.4350     4.9290 hc         1 1LI       0.045589
     72 H1B          5.6330     3.0140     6.5560 hc         1 1LI       0.045589
     73 H62          3.1730    -0.8550     0.3070 hn         1 1LI       0.477800
     74 H192         3.0670     3.7160     1.9340 hn         1 1LI       0.443800
@<TRIPOS>BOND
     1     1    20 1   
     2     1    21 2   
     3     1    22 1   
     4     2     6 1   
     5     2    19 1   
     6     2    23 1   
     7     2    35 1   
     8     3    18 1   
     9     3    19 1   
    10     3    36 1   
    11     3    37 1   
    12     4    16 ar  
    13     4    18 ar  
    14     4    38 1   
    15     5    13 1   
    16     5    14 ar  
    17     5    15 ar  
    18     6    24 1   
    19     6    39 1   
    20     6    40 1   
    21     7     8 1   
    22     7    10 1   
    23     7    24 1   
    24     7    27 1   
    25     8     9 1   
    26     8    41 1   
    27     8    42 1   
    28     9    25 1   
    29     9    43 1   
    30     9    44 1   
    31    10    12 ar  
    32    10    28 ar  
    33    11    29 ar  
    34    11    30 ar  
    35    11    45 1   
    36    12    29 ar  
    37    12    46 1   
    38    14    18 ar  
    39    14    47 1   
    40    15    16 ar  
    41    15    48 1   
    42    16    17 1   
    43    19    20 1   
    44    19    49 1   
    45    20    50 1   
    46    20    73 1   
    47    22    51 1   
    48    22    52 1   
    49    22    53 1   
    50    23    54 1   
    51    24    55 1   
    52    24    74 1   
    53    25    26 1   
    54    25    56 1   
    55    25    57 1   
    56    26    27 1   
    57    26    58 1   
    58    26    59 1   
    59    27    60 1   
    60    27    61 1   
    61    28    30 ar  
    62    28    62 1   
    63    29    31 1   
    64    30    63 1   
    65    31    32 1   
    66    31    33 1   
    67    31    34 1   
    68    32    64 1   
    69    32    65 1   
    70    32    66 1   
    71    33    67 1   
    72    33    68 1   
    73    33    69 1   
    74    34    70 1   
    75    34    71 1   
    76    34    72 1   
@<TRIPOS>SUBSTRUCTURE
     1 1LI         1 TEMP              0 ****  ****    0 ROOT
