@<TRIPOS>MOLECULE
1LJ
   45    47     1     0     0
SMALL
bcc


@<TRIPOS>ATOM
      1 C4           0.0000     0.0000     0.0000 ca         1 1LJ      -0.141500
      2 C5           1.3830     0.0000     0.0000 ca         1 1LJ       0.002000
      3 C6           2.0730     0.0000     1.1970 ca         1 1LJ      -0.133500
      4 C10         -1.1410    -1.6840    -1.9780 ca         1 1LJ      -0.164500
      5 C13         -1.5550    -4.3250    -2.6950 ca         1 1LJ      -0.018400
      6 C15         -0.2080    -2.3420    -2.7580 ca         1 1LJ       0.021500
      7 C17         -3.0150    -6.1120    -3.2700 c          1 1LJ       0.564100
      8 C20         -4.5880    -7.9120    -3.7450 c3         1 1LJ       0.147300
      9 C21         -4.5500    -9.3980    -3.9910 ca         1 1LJ      -0.328600
     10 C22         -4.6600   -10.2880    -2.9310 ca         1 1LJ       0.003000
     11 C24         -4.4720   -12.0680    -4.5160 ca         1 1LJ       0.517200
     12 C26         -4.4100    -9.8890    -5.2740 ca         1 1LJ       0.479200
     13 C1           1.3820    -0.0000     2.3940 ca         1 1LJ      -0.050000
     14 C2          -0.0000     0.0010     2.3940 ca         1 1LJ      -0.133500
     15 C3          -0.6910     0.0070     1.1970 ca         1 1LJ       0.002000
     16 S7          -0.8800    -0.0010    -1.5270 sy         1 1LJ       0.962600
     17 O8          -2.1630     0.5440    -1.2500 o          1 1LJ      -0.592300
     18 O9           0.0020     0.5430    -2.4990 o          1 1LJ      -0.592300
     19 C11         -2.2810    -2.3430    -1.5550 ca         1 1LJ       0.021500
     20 C12         -2.4910    -3.6610    -1.9120 ca         1 1LJ      -0.155500
     21 C14         -0.4120    -3.6590    -3.1180 ca         1 1LJ      -0.155500
     22 N16         -1.7640    -5.6600    -3.0570 ns         1 1LJ      -0.058100
     23 O18         -3.9550    -5.3390    -3.2430 o          1 1LJ      -0.688100
     24 N19         -3.2270    -7.4210    -3.5140 ns         1 1LJ      -0.216900
     25 C23         -4.6210   -11.6440    -3.2000 ca         1 1LJ      -0.310300
     26 N25         -4.3760   -11.1890    -5.5010 nb         1 1LJ      -0.657000
     27 N27         -4.4300   -13.4280    -4.8000 nv         1 1LJ      -0.523500
     28 H1           1.9250    -0.0020    -0.9380 ha         1 1LJ       0.121500
     29 H2           3.1570    -0.0000     1.1970 ha         1 1LJ       0.107500
     30 H3           0.6840    -1.8230    -3.0880 ha         1 1LJ       0.121000
     31 H4          -5.1990    -7.7060    -2.8750 h1         1 1LJ       0.028200
     32 H5          -5.0100    -7.4140    -4.6090 h1         1 1LJ       0.028200
     33 H6          -4.7750    -9.9280    -1.9150 ha         1 1LJ       0.108000
     34 H7          -4.3290    -9.1990    -6.1050 h4         1 1LJ      -0.018900
     35 H8           1.9240    -0.0030     3.3320 ha         1 1LJ       0.101000
     36 H9          -0.5420     0.0030     3.3320 ha         1 1LJ       0.107500
     37 H10         -1.7740     0.0070     1.1960 ha         1 1LJ       0.121500
     38 H11         -3.0100    -1.8240    -0.9440 ha         1 1LJ       0.121000
     39 H12         -3.3840    -4.1770    -1.5800 ha         1 1LJ       0.128500
     40 H13          0.3200    -4.1740    -3.7290 ha         1 1LJ       0.128500
     41 H14         -0.9870    -6.2870    -3.1270 hn         1 1LJ       0.163500
     42 H15         -2.4540    -8.0560    -3.5420 hn         1 1LJ       0.170500
     43 H16         -4.7010   -12.3660    -2.3970 ha         1 1LJ       0.119000
     44 H17         -4.3240   -13.7390    -5.7460 hn         1 1LJ       0.271800
     45 H18         -4.5040   -14.0970    -4.0600 hn         1 1LJ       0.271800
@<TRIPOS>BOND
     1     1     2 ar  
     2     1    15 ar  
     3     1    16 1   
     4     2     3 ar  
     5     2    28 1   
     6     3    13 ar  
     7     3    29 1   
     8     4     6 ar  
     9     4    16 1   
    10     4    19 ar  
    11     5    20 ar  
    12     5    21 ar  
    13     5    22 1   
    14     6    21 ar  
    15     6    30 1   
    16     7    22 1   
    17     7    23 2   
    18     7    24 1   
    19     8     9 1   
    20     8    24 1   
    21     8    31 1   
    22     8    32 1   
    23     9    10 ar  
    24     9    12 ar  
    25    10    25 ar  
    26    10    33 1   
    27    11    25 ar  
    28    11    26 ar  
    29    11    27 1   
    30    12    26 ar  
    31    12    34 1   
    32    13    14 ar  
    33    13    35 1   
    34    14    15 ar  
    35    14    36 1   
    36    15    37 1   
    37    16    17 2   
    38    16    18 2   
    39    19    20 ar  
    40    19    38 1   
    41    20    39 1   
    42    21    40 1   
    43    22    41 1   
    44    24    42 1   
    45    25    43 1   
    46    27    44 1   
    47    27    45 1   
@<TRIPOS>SUBSTRUCTURE
     1 1LJ         1 TEMP              0 ****  ****    0 ROOT
