@<TRIPOS>MOLECULE
1LJ
   46    48     1     0     0
SMALL
bcc


@<TRIPOS>ATOM
      1 C4          -0.6840     0.2740    -0.5250 ca         1 1LJ      -0.402500
      2 C5           0.5150     0.7200     0.0520 ca         1 1LJ      -0.015000
      3 C6           0.7740     0.5270     1.4050 ca         1 1LJ      -0.152500
      4 C10         -1.7460     1.9810    -2.1700 ca         1 1LJ      -0.328500
      5 C13         -3.0360     4.4780    -2.3070 ca         1 1LJ       0.063600
      6 C15         -3.1420     2.0640    -2.1420 ca         1 1LJ       0.005000
      7 C17         -3.1830     6.9330    -2.2580 c          1 1LJ       0.644100
      8 C20         -4.8510     8.2570    -3.6540 c3         1 1LJ       0.202100
      9 C21         -6.0820     7.4430    -3.6720 ca         1 1LJ      -0.427600
     10 C22         -7.2430     7.8580    -2.9900 ca         1 1LJ      -0.017000
     11 C24         -8.4170     5.9440    -3.9290 ca         1 1LJ       0.726200
     12 C26         -6.1790     6.2850    -4.4770 ca         1 1LJ       0.491200
     13 C1          -0.1650    -0.1220     2.2080 ca         1 1LJ      -0.054000
     14 C2          -1.3600    -0.5800     1.6490 ca         1 1LJ      -0.152500
     15 C3          -1.6120    -0.3840     0.2950 ca         1 1LJ      -0.015000
     16 S7          -0.9650     0.4590    -2.1560 sy         1 1LJ       1.440600
     17 O8           0.2430     0.6020    -2.8470 o          1 1LJ      -0.643300
     18 O9          -1.8950    -0.4890    -2.6020 o          1 1LJ      -0.643300
     19 C11         -1.0090     3.1620    -2.2680 ca         1 1LJ       0.005000
     20 C12         -1.6330     4.4080    -2.3340 ca         1 1LJ      -0.167000
     21 C14         -3.7950     3.2890    -2.2070 ca         1 1LJ      -0.167000
     22 N16         -3.7530     5.7020    -2.4040 ns         1 1LJ      -0.419100
     23 O18         -2.0040     7.2480    -2.0610 o          1 1LJ      -0.494100
     24 N19         -4.1130     8.1520    -2.3460 ny         1 1LJ      -0.677800
     25 C23         -8.4050     7.1260    -3.0980 ca         1 1LJ      -0.319300
     26 N25         -7.2760     5.5440    -4.6110 nb         1 1LJ      -0.729000
     27 N27         -9.5510     5.1950    -4.0390 nv         1 1LJ      -0.931500
     28 H1           1.2700     1.2110    -0.5890 ha         1 1LJ       0.153000
     29 H2           1.7230     0.8770     1.8390 ha         1 1LJ       0.149500
     30 H3          -3.7380     1.1340    -2.0880 ha         1 1LJ       0.173500
     31 H4          -5.1030     9.3510    -3.7890 hx         1 1LJ       0.109200
     32 H5          -4.1380     7.9470    -4.4720 hx         1 1LJ       0.109200
     33 H6          -7.2280     8.7760    -2.3810 ha         1 1LJ       0.139000
     34 H7          -5.3110     5.9330    -5.0720 h4         1 1LJ       0.036100
     35 H8           0.0390    -0.2800     3.2790 ha         1 1LJ       0.147000
     36 H9          -2.0970    -1.1050     2.2760 ha         1 1LJ       0.149500
     37 H10         -2.5460    -0.7700    -0.1520 ha         1 1LJ       0.153000
     38 H11          0.0950     3.1120    -2.3170 ha         1 1LJ       0.173500
     39 H12         -1.0080     5.3130    -2.4120 ha         1 1LJ       0.159000
     40 H13         -4.8960     3.3120    -2.1880 ha         1 1LJ       0.159000
     41 H14         -4.7370     5.6230    -2.5810 hn         1 1LJ       0.358500
     42 H15         -3.5060     8.9760    -2.2270 hn         1 1LJ       0.462300
     43 H16         -9.3190     7.4400    -2.5730 ha         1 1LJ       0.166000
     44 H17         -9.5880     4.4070    -4.6430 hn         1 1LJ       0.460800
     45 H18        -10.3850     5.5130    -3.6100 hn         1 1LJ       0.460800
     46 H192        -4.7880     8.1240    -1.5760 hn         1 1LJ       0.462300
@<TRIPOS>BOND
     1     1     2 ar  
     2     1    15 ar  
     3     1    16 1   
     4     2     3 ar  
     5     2    28 1   
     6     3    13 ar  
     7     3    29 1   
     8     4     6 ar  
     9     4    16 1   
    10     4    19 ar  
    11     5    20 ar  
    12     5    21 ar  
    13     5    22 1   
    14     6    21 ar  
    15     6    30 1   
    16     7    22 1   
    17     7    23 2   
    18     7    24 1   
    19     8     9 1   
    20     8    24 1   
    21     8    31 1   
    22     8    32 1   
    23     9    10 ar  
    24     9    12 ar  
    25    10    25 ar  
    26    10    33 1   
    27    11    25 ar  
    28    11    26 ar  
    29    11    27 1   
    30    12    26 ar  
    31    12    34 1   
    32    13    14 ar  
    33    13    35 1   
    34    14    15 ar  
    35    14    36 1   
    36    15    37 1   
    37    16    17 2   
    38    16    18 2   
    39    19    20 ar  
    40    19    38 1   
    41    20    39 1   
    42    21    40 1   
    43    22    41 1   
    44    24    42 1   
    45    24    46 1   
    46    25    43 1   
    47    27    44 1   
    48    27    45 1   
@<TRIPOS>SUBSTRUCTURE
     1 1LJ         1 TEMP              0 ****  ****    0 ROOT
