@<TRIPOS>MOLECULE
1LM
   19    20     1     0     0
SMALL
bcc


@<TRIPOS>ATOM
      1 C01          0.0000     0.0000     0.0000 ca         1 1LM      -0.101000
      2 C02          1.3930     0.0000     0.0000 ca         1 1LM      -0.094000
      3 C03          2.0960     0.0000     1.1650 ca         1 1LM      -0.142300
      4 C04          1.4110     0.0000     2.3930 ca         1 1LM       0.379600
      5 C05         -0.0040     0.0000     2.3900 ca         1 1LM      -0.161300
      6 C06         -0.6970    -0.0010     1.1720 ca         1 1LM      -0.080000
      7 C07         -0.6910    -0.0000     3.6280 ca         1 1LM       0.076600
      8 C08          0.0650    -0.0000     4.7890 ca         1 1LM      -0.244300
      9 C09          1.4510    -0.0000     4.7080 ca         1 1LM       0.416200
     10 N10          2.0770    -0.0000     3.5540 nb         1 1LM      -0.575000
     11 N11         -2.0770    -0.0000     3.6770 nv         1 1LM      -0.553200
     12 H1          -0.5360     0.0000    -0.9420 ha         1 1LM       0.102000
     13 H2           1.9260     0.0010    -0.9430 ha         1 1LM       0.102000
     14 H3           3.1790    -0.0000     1.1470 ha         1 1LM       0.117000
     15 H4          -1.7800    -0.0010     1.1610 ha         1 1LM       0.110000
     16 H5          -0.4230    -0.0000     5.7560 ha         1 1LM       0.116000
     17 H6           2.0320    -0.0000     5.6220 h4         1 1LM      -0.023900
     18 H7          -2.5760    -0.8670     3.7140 hn         1 1LM       0.277800
     19 H8          -2.5760     0.8670     3.7130 hn         1 1LM       0.277800
@<TRIPOS>BOND
     1     1     2 ar  
     2     1     6 ar  
     3     1    12 1   
     4     2     3 ar  
     5     2    13 1   
     6     3     4 ar  
     7     3    14 1   
     8     4     5 ar  
     9     4    10 ar  
    10     5     6 ar  
    11     5     7 ar  
    12     6    15 1   
    13     7     8 ar  
    14     7    11 1   
    15     8     9 ar  
    16     8    16 1   
    17     9    10 ar  
    18     9    17 1   
    19    11    18 1   
    20    11    19 1   
@<TRIPOS>SUBSTRUCTURE
     1 1LM         1 TEMP              0 ****  ****    0 ROOT
