@<TRIPOS>MOLECULE
1LM
   19    20     1     0     0
SMALL
bcc


@<TRIPOS>ATOM
      1 C01         -0.0010    -0.0250    -0.0420 ca         1 1LM      -0.139000
      2 C02          1.4110     0.0030     0.0060 ca         1 1LM      -0.117000
      3 C03          2.0670     0.0190     1.2100 ca         1 1LM      -0.173300
      4 C04          1.3330     0.0110     2.4420 ca         1 1LM       0.422600
      5 C05         -0.0960    -0.0080     2.3860 ca         1 1LM      -0.180300
      6 C06         -0.7340    -0.0320     1.1200 ca         1 1LM      -0.106000
      7 C07         -0.8230    -0.0090     3.6390 ca         1 1LM       0.203600
      8 C08         -0.0830     0.0080     4.8230 ca         1 1LM      -0.349300
      9 C09          1.3340     0.0140     4.7530 ca         1 1LM       0.449200
     10 N10          2.0340     0.0210     3.6320 nb         1 1LM      -0.694000
     11 N11         -2.2080    -0.0920     3.6700 nv         1 1LM      -0.833200
     12 H1          -0.5040    -0.0450    -1.0200 ha         1 1LM       0.133000
     13 H2           1.9780     0.0080    -0.9370 ha         1 1LM       0.135000
     14 H3           3.1670     0.0360     1.2510 ha         1 1LM       0.151000
     15 H4          -1.8320    -0.0680     1.0500 ha         1 1LM       0.125000
     16 H5          -0.5680     0.0080     5.8080 ha         1 1LM       0.141000
     17 H6           1.9210     0.0190     5.6910 h4         1 1LM       0.019100
     18 H7          -2.6330     0.1400     4.5380 hn         1 1LM       0.405800
     19 H8          -2.6930     0.2370     2.8680 hn         1 1LM       0.405800
@<TRIPOS>BOND
     1     1     2 ar  
     2     1     6 ar  
     3     1    12 1   
     4     2     3 ar  
     5     2    13 1   
     6     3     4 ar  
     7     3    14 1   
     8     4     5 ar  
     9     4    10 ar  
    10     5     6 ar  
    11     5     7 ar  
    12     6    15 1   
    13     7     8 ar  
    14     7    11 1   
    15     8     9 ar  
    16     8    16 1   
    17     9    10 ar  
    18     9    17 1   
    19    11    18 1   
    20    11    19 1   
@<TRIPOS>SUBSTRUCTURE
     1 1LM         1 TEMP              0 ****  ****    0 ROOT
