@<TRIPOS>MOLECULE
1LN
   21    21     1     0     0
SMALL
bcc


@<TRIPOS>ATOM
      1 C01         -0.0860     0.0860     0.0590 ca         1 1LN       0.020000
      2 C02          1.3070     0.3170     0.1160 ca         1 1LN      -0.185000
      3 C03          1.9440     0.2880     1.3380 ca         1 1LN       0.005700
      4 N04          1.2740     0.0180     2.5220 na         1 1LN      -0.057100
      5 C05         -0.1090    -0.1480     2.5000 ca         1 1LN       0.178500
      6 C06         -0.7850    -0.1380     1.2220 ca         1 1LN      -0.226000
      7 N07         -0.8440    -0.3190     3.6370 nv         1 1LN      -0.403200
      8 C08          2.0710    -0.0190     3.7470 c3         1 1LN      -0.008700
      9 C09          2.3980     1.3660     4.3250 c3         1 1LN       0.113400
     10 O10          3.2290     2.0080     3.3760 oh         1 1LN      -0.616800
     11 H1          -0.6060     0.0950    -0.9160 ha         1 1LN       0.187000
     12 H2           1.8830     0.5240    -0.8000 ha         1 1LN       0.197000
     13 H3           3.0310     0.4990     1.4500 h4         1 1LN       0.217000
     14 H4          -1.8750    -0.3050     1.2010 ha         1 1LN       0.186000
     15 H5          -0.4490    -0.3030     4.5470 hn         1 1LN       0.317200
     16 H6          -1.8210    -0.4890     3.5480 hn         1 1LN       0.317200
     17 H7           1.5630    -0.6390     4.5350 h1         1 1LN       0.098200
     18 H8           3.0460    -0.5340     3.4930 h1         1 1LN       0.098200
     19 H9           2.9410     1.2160     5.2980 h1         1 1LN       0.059700
     20 H10          1.4720     1.9740     4.5020 h1         1 1LN       0.059700
     21 H11          3.5850     2.8040     3.7930 ho         1 1LN       0.441000
@<TRIPOS>BOND
     1     1     2 ar  
     2     1     6 ar  
     3     1    11 1   
     4     2     3 ar  
     5     2    12 1   
     6     3     4 1   
     7     3    13 1   
     8     4     5 2   
     9     4     8 1   
    10     5     6 ar  
    11     5     7 1   
    12     6    14 1   
    13     7    15 1   
    14     7    16 1   
    15     8     9 1   
    16     8    17 1   
    17     8    18 1   
    18     9    10 1   
    19     9    19 1   
    20     9    20 1   
    21    10    21 1   
@<TRIPOS>SUBSTRUCTURE
     1 1LN         1 TEMP              0 ****  ****    0 ROOT
