@<TRIPOS>MOLECULE
1LN
   21    21     1     0     0
SMALL
bcc


@<TRIPOS>ATOM
      1 C01          0.0000     0.0000     0.0000 ca         1 1LN       0.008000
      2 C02          1.4220     0.0000     0.0000 ca         1 1LN      -0.073000
      3 C03          2.0980     0.0000     1.2290 ca         1 1LN      -0.209300
      4 N04          1.4000     0.0010     2.4000 na         1 1LN       0.570900
      5 C05          0.0420    -0.0210     2.4040 ca         1 1LN      -0.208500
      6 C06         -0.7170    -0.0180     1.1790 ca         1 1LN      -0.118000
      7 N07         -0.7720    -0.0470     3.6010 nv         1 1LN       0.046800
      8 C08          2.1780    -0.0060     3.6200 c3         1 1LN      -0.123700
      9 C09          2.2700     1.2810     4.4860 c3         1 1LN       0.235400
     10 O10          2.3610     2.5260     3.7740 oh         1 1LN      -0.598800
     11 H1          -0.5310     0.0010    -0.9440 ha         1 1LN       0.138000
     12 H2           1.9730     0.0070    -0.9320 ha         1 1LN       0.152000
     13 H3           3.1810     0.0090     1.2470 h4         1 1LN       0.170000
     14 H4          -1.8000    -0.0270     1.1830 ha         1 1LN       0.157000
     15 H5          -1.7180     0.2770     3.5690 hn         1 1LN       0.144200
     16 H6          -0.3980    -0.4190     4.4510 hn         1 1LN       0.144200
     17 H7           1.7750    -0.7890     4.2520 h1         1 1LN       0.058700
     18 H8           3.1900    -0.2880     3.3550 h1         1 1LN       0.058700
     19 H9           3.1420     1.1940     5.1230 h1         1 1LN       0.008200
     20 H10          1.3920     1.3210     5.1200 h1         1 1LN       0.008200
     21 H11          2.6430     3.2050     4.3630 ho         1 1LN       0.432000
@<TRIPOS>BOND
     1     1     2 ar  
     2     1     6 ar  
     3     1    11 1   
     4     2     3 ar  
     5     2    12 1   
     6     3     4 1   
     7     3    13 1   
     8     4     5 2   
     9     4     8 1   
    10     5     6 ar  
    11     5     7 1   
    12     6    14 1   
    13     7    15 1   
    14     7    16 1   
    15     8     9 1   
    16     8    17 1   
    17     8    18 1   
    18     9    10 1   
    19     9    19 1   
    20     9    20 1   
    21    10    21 1   
@<TRIPOS>SUBSTRUCTURE
     1 1LN         1 TEMP              0 ****  ****    0 ROOT
