@<TRIPOS>MOLECULE
molecule
   20    20     1     0     0
SMALL
bcc


@<TRIPOS>ATOM
      1 O2           0.0000     0.0000     0.0000 o          1 1LP      -0.518100
      2 C1           1.2080     0.0000     0.0000 c          1 1LP       0.579900
      3 C2           1.9600     0.0000     1.3040 c3         1 1LP      -0.147400
      4 C3           2.8400    -1.2480     1.3840 c3         1 1LP      -0.082100
      5 C1'          2.8270     1.2300     1.3850 ca         1 1LP      -0.080300
      6 C6'          2.6410     2.1380     2.4110 ca         1 1LP      -0.122000
      7 C5'          3.4360     3.2670     2.4850 ca         1 1LP      -0.124000
      8 C4'          4.4150     3.4880     1.5350 ca         1 1LP      -0.126000
      9 C3'          4.5990     2.5790     0.5110 ca         1 1LP      -0.124000
     10 C2'          3.8090     1.4470     0.4390 ca         1 1LP      -0.122000
     11 H1C1         1.7500     0.0270    -0.9380 h4         1 1LP      -0.001800
     12 H2           1.2570    -0.0010     2.1280 hc         1 1LP       0.081700
     13 H3C1         3.8630    -0.9570     1.5910 hc         1 1LP       0.043033
     14 H3C2         2.4810    -1.8940     2.1760 hc         1 1LP       0.043033
     15 H3C3         2.8010    -1.7790     0.4400 hc         1 1LP       0.043033
     16 H6'          1.8730     1.9660     3.1550 ha         1 1LP       0.132000
     17 H5'          3.2910     3.9800     3.2880 ha         1 1LP       0.131500
     18 H4'          5.0360     4.3730     1.5920 ha         1 1LP       0.131000
     19 H3'          5.3680     2.7500    -0.2330 ha         1 1LP       0.131500
     20 H2'          3.9540     0.7360    -0.3650 ha         1 1LP       0.132000
@<TRIPOS>BOND
     1     1     2 2   
     2     2     3 1   
     3     2    11 1   
     4     3     4 1   
     5     3     5 1   
     6     3    12 1   
     7     4    13 1   
     8     4    14 1   
     9     4    15 1   
    10     5     6 ar  
    11     5    10 ar  
    12     6     7 ar  
    13     6    16 1   
    14     7     8 ar  
    15     7    17 1   
    16     8     9 ar  
    17     8    18 1   
    18     9    10 ar  
    19     9    19 1   
    20    10    20 1   
@<TRIPOS>SUBSTRUCTURE
     1 1LP         1 TEMP              0 ****  ****    0 ROOT
