@<TRIPOS>MOLECULE
1LP
   20    20     1     0     0
SMALL
bcc


@<TRIPOS>ATOM
      1 O2         -0.0700   -0.2200    0.0980 o         1 1LP     -0.521100
      2 C1          1.1420   -0.0110    0.0850 c         1 1LP      0.573900
      3 C2          1.9830   -0.0040    1.3410 c3        1 1LP     -0.140400
      4 C3          2.8110   -1.2750    1.3920 c3        1 1LP     -0.084100
      5 C1'         2.8420    1.2190    1.3790 ca        1 1LP     -0.082300
      6 C6'         2.6650    2.1620    2.3990 ca        1 1LP     -0.123000
      7 C5'         3.4610    3.3060    2.4450 ca        1 1LP     -0.127000
      8 C4'         4.4390    3.5190    1.4730 ca        1 1LP     -0.126000
      9 C3'         4.6190    2.5840    0.4540 ca        1 1LP     -0.127000
     10 C2'         3.8250    1.4390    0.4070 ca        1 1LP     -0.123000
     11 H1C1        1.6990    0.1810   -0.8590 h4        1 1LP     -0.000800
     12 H2          1.2900    0.0010    2.2330 hc        1 1LP      0.081700
     13 H3C1        3.4320   -1.2880    2.3190 hc        1 1LP      0.044700
     14 H3C2        2.1390   -2.1670    1.3970 hc        1 1LP      0.044700
     15 H3C3        3.4910   -1.3430    0.5090 hc        1 1LP      0.044700
     16 H6'         1.8940    2.0020    3.1680 ha        1 1LP      0.132500
     17 H5'         3.3160    4.0410    3.2500 ha        1 1LP      0.133500
     18 H4'         5.0650    4.4220    1.5100 ha        1 1LP      0.134000
     19 H3'         5.3880    2.7480   -0.3140 ha        1 1LP      0.133500
     20 H2'         3.9750    0.7030   -0.3970 ha        1 1LP      0.132500
@<TRIPOS>BOND
     1    1    2 2   
     2    2    3 1   
     3    2   11 1   
     4    3    4 1   
     5    3    5 1   
     6    3   12 1   
     7    4   13 1   
     8    4   14 1   
     9    4   15 1   
    10    5    6 ar  
    11    5   10 ar  
    12    6    7 ar  
    13    6   16 1   
    14    7    8 ar  
    15    7   17 1   
    16    8    9 ar  
    17    8   18 1   
    18    9   10 ar  
    19    9   19 1   
    20   10   20 1   
@<TRIPOS>SUBSTRUCTURE
     1 1LP         1 TEMP              0 ****  ****    0 ROOT
