@<TRIPOS>MOLECULE
1LP
   20    20     1     0     0
SMALL
bcc


@<TRIPOS>ATOM
      1 O2           0.7400    -1.1360     0.2900 o          1 1LP      -0.521100
      2 C1           1.3060    -0.0800     0.5670 c          1 1LP       0.573900
      3 C2           2.7000    -0.0290     1.1510 c3         1 1LP      -0.140400
      4 C3           3.6720     0.4250     0.0770 c3         1 1LP      -0.084100
      5 C1'          2.7280     0.8730     2.3420 ca         1 1LP      -0.082300
      6 C6'          3.0350     0.3500     3.6040 ca         1 1LP      -0.123000
      7 C5'          3.0640     1.1830     4.7220 ca         1 1LP      -0.127000
      8 C4'          2.7850     2.5430     4.5900 ca         1 1LP      -0.126000
      9 C3'          2.4770     3.0690     3.3360 ca         1 1LP      -0.127000
     10 C2'          2.4490     2.2390     2.2170 ca         1 1LP      -0.123000
     11 H1C1         0.8280     0.9100     0.3970 h4         1 1LP      -0.000800
     12 H2           2.9900    -1.0730     1.4690 hc         1 1LP       0.081700
     13 H3C1         3.4060     1.4440    -0.2960 hc         1 1LP       0.044700
     14 H3C2         4.7080     0.4600     0.4920 hc         1 1LP       0.044700
     15 H3C3         3.6530    -0.2880    -0.7820 hc         1 1LP       0.044700
     16 H6'          3.2540    -0.7230     3.7160 ha         1 1LP       0.132500
     17 H5'          3.3080     0.7640     5.7090 ha         1 1LP       0.133500
     18 H4'          2.8080     3.1990     5.4730 ha         1 1LP       0.134000
     19 H3'          2.2560     4.1410     3.2280 ha         1 1LP       0.133500
     20 H2'          2.2090     2.6620     1.2290 ha         1 1LP       0.132500
@<TRIPOS>BOND
     1     1     2 2   
     2     2     3 1   
     3     2    11 1   
     4     3     4 1   
     5     3     5 1   
     6     3    12 1   
     7     4    13 1   
     8     4    14 1   
     9     4    15 1   
    10     5     6 ar  
    11     5    10 ar  
    12     6     7 ar  
    13     6    16 1   
    14     7     8 ar  
    15     7    17 1   
    16     8     9 ar  
    17     8    18 1   
    18     9    10 ar  
    19     9    19 1   
    20    10    20 1   
@<TRIPOS>SUBSTRUCTURE
     1 1LP         1 TEMP              0 ****  ****    0 ROOT
