@<TRIPOS>MOLECULE
molecule
   18    19     1     0     0
SMALL
bcc


@<TRIPOS>ATOM
      1 CAE          0.0000     0.0000     0.0000 ca         1 1LQ      -0.176300
      2 CAB          1.3630     0.0000     0.0000 ca         1 1LQ      -0.102000
      3 CAC          2.0810     0.0000     1.1930 ca         1 1LQ      -0.140000
      4 CAF          1.4390    -0.0010     2.3960 ca         1 1LQ      -0.085000
      5 C5           0.0410    -0.0010     2.4310 ca         1 1LQ      -0.294600
      6 C4          -0.6910    -0.0010     1.2190 ca         1 1LQ       0.447600
      7 N3          -2.0320     0.0040     1.2760 nb         1 1LQ      -0.734000
      8 C2          -2.6490     0.0030     2.4340 ca         1 1LQ       0.692900
      9 N1          -2.0070    -0.0030     3.5910 nb         1 1LQ      -0.772000
     10 C6          -0.6820    -0.0030     3.6490 ca         1 1LQ       0.742200
     11 NAA         -0.0260    -0.0040     4.8620 nv         1 1LQ      -1.082500
     12 H1          -0.5450    -0.0000    -0.9360 ha         1 1LQ       0.152000
     13 H2           1.8960     0.0010    -0.9430 ha         1 1LQ       0.135000
     14 H3           3.1640     0.0000     1.1650 ha         1 1LQ       0.133000
     15 H4           2.0080    -0.0010     3.3180 ha         1 1LQ       0.141000
     16 H5          -3.7320     0.0030     2.4430 h5         1 1LQ       0.057100
     17 H6           0.1930    -0.8710     5.3110 hn         1 1LQ       0.443800
     18 H7           0.1920     0.8620     5.3130 hn         1 1LQ       0.443800
@<TRIPOS>BOND
     1     3     4 ar
     2     3     2 ar
     3     4     5 ar
     4     2     1 ar
     5    11    10 1
     6     5    10 ar
     7     5     6 ar
     8     1     6 ar
     9    10     9 ar
    10     6     7 ar
    11     9     8 ar
    12     7     8 ar
    13     1    12 1
    14     2    13 1
    15     3    14 1
    16     4    15 1
    17     8    16 1
    18    11    17 1
    19    11    18 1
@<TRIPOS>SUBSTRUCTURE
     1 1LQ         1 TEMP              0 ****  ****    0 ROOT
