@<TRIPOS>MOLECULE
1LQ
   18    19     1     0     0
SMALL
bcc


@<TRIPOS>ATOM
      1 CAE          0.0090    -0.0070    -0.0670 ca         1 1LQ      -0.181300
      2 CAB          1.3790     0.0590    -0.0210 ca         1 1LQ      -0.103000
      3 CAC          2.0580     0.0880     1.2170 ca         1 1LQ      -0.145000
      4 CAF          1.3530     0.0540     2.3980 ca         1 1LQ      -0.091000
      5 C5          -0.0590    -0.0070     2.3920 ca         1 1LQ      -0.296600
      6 C4          -0.7550    -0.0450     1.1420 ca         1 1LQ       0.440600
      7 N3          -2.1350    -0.1180     1.0820 nb         1 1LQ      -0.724000
      8 C2          -2.7720    -0.1450     2.2520 ca         1 1LQ       0.675900
      9 N1          -2.2380    -0.1010     3.5170 nb         1 1LQ      -0.789000
     10 C6          -0.8850    -0.0440     3.6000 ca         1 1LQ       0.700200
     11 NAA         -0.2880    -0.0780     4.8490 nv         1 1LQ      -0.947500
     12 H1          -0.5240    -0.0340    -1.0310 ha         1 1LQ       0.155000
     13 H2           1.9650     0.0870    -0.9520 ha         1 1LQ       0.137000
     14 H3           3.1580     0.1340     1.2250 ha         1 1LQ       0.136000
     15 H4           1.9100     0.0660     3.3470 ha         1 1LQ       0.126000
     16 H5          -3.8810    -0.2030     2.2220 h5         1 1LQ       0.051100
     17 H6           0.6330     0.2800     4.9210 hn         1 1LQ       0.426800
     18 H7          -0.8680     0.0180     5.6500 hn         1 1LQ       0.426800
@<TRIPOS>BOND
     1     1     2 ar  
     2     1     6 ar  
     3     1    12 1   
     4     2     3 ar  
     5     2    13 1   
     6     3     4 ar  
     7     3    14 1   
     8     4     5 ar  
     9     4    15 1   
    10     5     6 ar  
    11     5    10 ar  
    12     6     7 ar  
    13     7     8 ar  
    14     8     9 ar  
    15     8    16 1   
    16     9    10 ar  
    17    10    11 1   
    18    11    17 1   
    19    11    18 1   
@<TRIPOS>SUBSTRUCTURE
     1 1LQ         1 TEMP              0 ****  ****    0 ROOT
