@<TRIPOS>MOLECULE
1LQ
   18    19     1     0     0
SMALL
bcc


@<TRIPOS>ATOM
      1 CAE          0.0000     0.0000     0.0000 ca         1 1LQ      -0.149300
      2 CAB          1.3630     0.0000     0.0000 ca         1 1LQ      -0.077000
      3 CAC          2.0810     0.0000     1.1930 ca         1 1LQ      -0.106000
      4 CAF          1.4390    -0.0010     2.3960 ca         1 1LQ      -0.061000
      5 C5           0.0410    -0.0010     2.4310 ca         1 1LQ      -0.282600
      6 C4          -0.6910    -0.0010     1.2190 ca         1 1LQ       0.401600
      7 N3          -2.0320     0.0040     1.2760 nb         1 1LQ      -0.619000
      8 C2          -2.6490     0.0030     2.4340 ca         1 1LQ       0.635900
      9 N1          -2.0070    -0.0030     3.5910 nb         1 1LQ      -0.649000
     10 C6          -0.6820    -0.0030     3.6490 ca         1 1LQ       0.557200
     11 NAA         -0.0260    -0.0040     4.8620 nv         1 1LQ      -0.652500
     12 H1          -0.5450    -0.0000    -0.9360 ha         1 1LQ       0.121000
     13 H2           1.8960     0.0010    -0.9430 ha         1 1LQ       0.104000
     14 H3           3.1640     0.0000     1.1650 ha         1 1LQ       0.105000
     15 H4           2.0080    -0.0010     3.3180 ha         1 1LQ       0.112000
     16 H5          -3.7320     0.0030     2.4430 h5         1 1LQ      -0.003900
     17 H6           0.1930    -0.8710     5.3110 hn         1 1LQ       0.281800
     18 H7           0.1920     0.8620     5.3130 hn         1 1LQ       0.281800
@<TRIPOS>BOND
     1     1     2 ar  
     2     1     6 ar  
     3     1    12 1   
     4     2     3 ar  
     5     2    13 1   
     6     3     4 ar  
     7     3    14 1   
     8     4     5 ar  
     9     4    15 1   
    10     5     6 ar  
    11     5    10 ar  
    12     6     7 ar  
    13     7     8 ar  
    14     8     9 ar  
    15     8    16 1   
    16     9    10 ar  
    17    10    11 1   
    18    11    17 1   
    19    11    18 1   
@<TRIPOS>SUBSTRUCTURE
     1 1LQ         1 TEMP              0 ****  ****    0 ROOT
