@<TRIPOS>MOLECULE
1LR
   29    30     1     0     0
SMALL
bcc


@<TRIPOS>ATOM
      1 OAJ         -0.0790    -0.1480    -0.0810 oh         1 1LR      -0.577100
      2 CAC          1.2820    -0.0130     0.0370 ca         1 1LR       0.149100
      3 CAD          1.9460     0.0710     1.2710 ca         1 1LR      -0.201600
      4 CAG          1.2200     0.0250     2.6030 c          1 1LR       0.918200
      5 OAH         -0.0470    -0.0860     2.6040 o          1 1LR      -0.830300
      6 OAI          1.9030     0.1000     3.6590 o          1 1LR      -0.830300
      7 CAE          3.3370     0.2000     1.2820 ca         1 1LR      -0.078000
      8 CAF          4.0610     0.2510     0.0960 ca         1 1LR      -0.191000
      9 CAA          3.4130     0.1790    -1.1350 ca         1 1LR      -0.121000
     10 CAB          2.0160     0.0480    -1.1910 ca         1 1LR      -0.036400
     11 NAK          1.3090     0.0140    -2.4160 ns         1 1LR      -0.430100
     12 CAL          1.7820    -0.4630    -3.6180 c          1 1LR       0.661700
     13 OAM          2.9870    -0.6910    -3.8580 o          1 1LR      -0.618100
     14 CAN          0.7620    -0.6270    -4.7050 ca         1 1LR      -0.131600
     15 CAO         -0.4850    -1.2100    -4.4620 ca         1 1LR      -0.093500
     16 CAP         -1.3940    -1.3660    -5.5090 ca         1 1LR      -0.143500
     17 CAQ         -1.0620    -0.9400    -6.7950 ca         1 1LR      -0.123000
     18 CAR          0.1850    -0.3640    -7.0400 ca         1 1LR      -0.143500
     19 CAS          1.0990    -0.2110    -5.9990 ca         1 1LR      -0.093500
     20 H2           3.8400     0.2590     2.2620 ha         1 1LR       0.155000
     21 H3           5.1560     0.3480     0.1210 ha         1 1LR       0.113000
     22 H4           4.0010     0.2140    -2.0650 ha         1 1LR       0.146000
     23 H5          -0.7530    -1.5600    -3.4530 ha         1 1LR       0.150000
     24 H6          -2.3740    -1.8250    -5.3160 ha         1 1LR       0.128500
     25 H7          -1.7830    -1.0610    -7.6170 ha         1 1LR       0.123000
     26 H8           0.4490    -0.0340    -8.0540 ha         1 1LR       0.128500
     27 H9           2.0940     0.2250    -6.1810 ha         1 1LR       0.150000
     28 H10         -0.4790    -0.1560     0.8170 ho         1 1LR       0.493000
     29 H11          0.3180     0.0980    -2.3140 hn         1 1LR       0.326500
@<TRIPOS>BOND
     1     1     2 1   
     2     1    28 1   
     3     2     3 ar  
     4     2    10 ar  
     5     3     4 1   
     6     3     7 ar  
     7     4     5 1   
     8     4     6 1   
     9     7     8 ar  
    10     7    20 1   
    11     8     9 ar  
    12     8    21 1   
    13     9    10 ar  
    14     9    22 1   
    15    10    11 1   
    16    11    12 1   
    17    11    29 1   
    18    12    13 2   
    19    12    14 1   
    20    14    15 ar  
    21    14    19 ar  
    22    15    16 ar  
    23    15    23 1   
    24    16    17 ar  
    25    16    24 1   
    26    17    18 ar  
    27    17    25 1   
    28    18    19 ar  
    29    18    26 1   
    30    19    27 1   
@<TRIPOS>SUBSTRUCTURE
     1 1LR         1 TEMP              0 ****  ****    0 ROOT
