@<TRIPOS>MOLECULE
1LR
   29    30     1     0     0
SMALL
bcc


@<TRIPOS>ATOM
      1 OAJ          0.0000     0.0000     0.0000 oh         1 1LR      -0.480100
      2 CAC          1.3580     0.0000     0.0000 ca         1 1LR       0.125100
      3 CAD          2.0620     0.0000     1.2100 ca         1 1LR      -0.122600
      4 CAG          1.3330     0.0070     2.4910 c          1 1LR       0.975200
      5 OAH          2.0140     0.0070     3.6540 o          1 1LR      -0.880300
      6 OAI          0.1170     0.0110     2.4990 o          1 1LR      -0.880300
      7 CAE          3.4610    -0.0060     1.1970 ca         1 1LR      -0.053000
      8 CAF          4.1390    -0.0120    -0.0020 ca         1 1LR      -0.146000
      9 CAA          3.4440    -0.0130    -1.1990 ca         1 1LR      -0.119000
     10 CAB          2.0580    -0.0070    -1.2050 ca         1 1LR      -0.187400
     11 NAK          1.3610    -0.0140    -2.4200 ns         1 1LR       0.007900
     12 CAL          1.9430    -0.5150    -3.5270 c          1 1LR       0.561700
     13 OAM          3.0310    -1.0530    -3.4520 o          1 1LR      -0.654100
     14 CAN          1.2590    -0.4120    -4.8330 ca         1 1LR      -0.144600
     15 CAO          1.8590    -0.9300    -5.9830 ca         1 1LR      -0.063000
     16 CAP          1.2150    -0.8300    -7.1980 ca         1 1LR      -0.117000
     17 CAQ         -0.0230    -0.2170    -7.2800 ca         1 1LR      -0.093000
     18 CAR         -0.6230     0.2990    -6.1450 ca         1 1LR      -0.117000
     19 CAS          0.0080     0.2000    -4.9220 ca         1 1LR      -0.063000
     20 H2           4.0110    -0.0060     2.1310 ha         1 1LR       0.129000
     21 H3           5.2220    -0.0170    -0.0080 ha         1 1LR       0.088000
     22 H4           3.9860    -0.0180    -2.1370 ha         1 1LR       0.137000
     23 H5           2.8280    -1.4100    -5.9200 ha         1 1LR       0.118500
     24 H6           1.6790    -1.2320    -8.0910 ha         1 1LR       0.100000
     25 H7          -0.5240    -0.1390    -8.2370 ha         1 1LR       0.095000
     26 H8          -1.5940     0.7760    -6.2160 ha         1 1LR       0.100000
     27 H9          -0.4630     0.6050    -4.0340 ha         1 1LR       0.118500
     28 H10         -0.3140    -0.8880    -0.0360 ho         1 1LR       0.395000
     29 H11          0.4410     0.3770    -2.4710 hn         1 1LR       0.171500
@<TRIPOS>BOND
     1     1     2 1   
     2     1    28 1   
     3     2     3 ar  
     4     2    10 ar  
     5     3     4 1   
     6     3     7 ar  
     7     4     5 1   
     8     4     6 1   
     9     7     8 ar  
    10     7    20 1   
    11     8     9 ar  
    12     8    21 1   
    13     9    10 ar  
    14     9    22 1   
    15    10    11 1   
    16    11    12 1   
    17    11    29 1   
    18    12    13 2   
    19    12    14 1   
    20    14    15 ar  
    21    14    19 ar  
    22    15    16 ar  
    23    15    23 1   
    24    16    17 ar  
    25    16    24 1   
    26    17    18 ar  
    27    17    25 1   
    28    18    19 ar  
    29    18    26 1   
    30    19    27 1   
@<TRIPOS>SUBSTRUCTURE
     1 1LR         1 TEMP              0 ****  ****    0 ROOT
