@<TRIPOS>MOLECULE
molecule
   48    50     1     0     0
SMALL
bcc


@<TRIPOS>ATOM
      1 C4           0.0000     0.0000     0.0000 ca         1 1LS       0.438200
      2 C6          -0.0670    -0.0060     2.3020 ca         1 1LS       0.432200
      3 C7           2.1460     0.0020    -1.2990 c3         1 1LS       0.168300
      4 C13          5.0380    -2.4270    -4.8560 ca         1 1LS      -0.137000
      5 C15          5.1310    -3.6490    -6.9130 ca         1 1LS      -0.313500
      6 C17          3.4040    -4.1270    -5.3250 ca         1 1LS      -0.137000
      7 C22          5.7320    -1.6190    -9.8310 c3         1 1LS       0.234300
      8 C24          4.7010    -1.7800   -12.1000 c3         1 1LS      -0.079400
      9 C26          4.0080    -3.4000   -10.3290 c3         1 1LS       0.234300
     10 C1           1.3130    -0.0120     2.3810 ca         1 1LS      -0.257300
     11 C2           2.0570     0.0000     1.2120 ca         1 1LS      -0.074000
     12 C3           1.3820     0.0000     0.0000 ca         1 1LS      -0.258600
     13 N5          -0.6750    -0.0000     1.1320 nb         1 1LS      -0.688000
     14 N8           2.3940    -1.3800    -1.7210 ns         1 1LS      -0.514900
     15 C9           3.0660    -1.6240    -2.8630 cs         1 1LS       0.599400
     16 S10          3.6290    -0.3220    -3.8210 s          1 1LS      -0.683400
     17 N11          3.2950    -2.8950    -3.2510 ns         1 1LS      -0.426100
     18 C12          3.9130    -3.1500    -4.4790 ca         1 1LS       0.086600
     19 C14          5.6430    -2.6790    -6.0720 ca         1 1LS      -0.026500
     20 C16          4.0110    -4.3700    -6.5410 ca         1 1LS      -0.026500
     21 O19          7.2500    -3.5270    -8.3390 o          1 1LS      -0.638800
     22 O20          5.5450    -5.2870    -8.8320 o          1 1LS      -0.638800
     23 N21          5.1910    -2.9620    -9.5780 n3         1 1LS      -0.816500
     24 C23          5.9870    -1.4660   -11.3340 c3         1 1LS      -0.091400
     25 C25          4.2820    -3.2270   -11.8260 c3         1 1LS      -0.091400
     26 H1          -0.5350     0.0050    -0.9420 h4         1 1LS       0.030100
     27 H2          -0.6560    -0.0110     3.2120 h4         1 1LS       0.028100
     28 H3           1.5660     0.5130    -2.0580 h1         1 1LS       0.082700
     29 H4           3.0910     0.5130    -1.1610 h1         1 1LS       0.082700
     30 H5           5.4390    -1.6660    -4.1980 ha         1 1LS       0.156000
     31 H6           2.5270    -4.6930    -5.0340 ha         1 1LS       0.156000
     32 H8           5.0150    -0.8730    -9.5080 h1         1 1LS       0.055700
     33 H9           4.8740    -1.6510   -13.1620 hc         1 1LS       0.042200
     34 H10          3.9140    -1.1110   -11.7730 hc         1 1LS       0.042200
     35 H11          3.8090    -4.4440   -10.1160 h1         1 1LS       0.055700
     36 H12          3.1540    -2.7970   -10.0460 h1         1 1LS       0.055700
     37 H13          1.8070    -0.0140     3.3450 ha         1 1LS       0.144000
     38 H14          3.1400    -0.0020     1.2430 ha         1 1LS       0.145000
     39 H15          2.0330    -2.1410    -1.1800 hn         1 1LS       0.314500
     40 H16          2.9680    -3.6560    -2.6890 hn         1 1LS       0.321500
     41 H17          6.5210    -2.1160    -6.3660 ha         1 1LS       0.153500
     42 H18          3.6130    -5.1310    -7.2020 ha         1 1LS       0.153500
     43 H19          6.2930    -0.4490   -11.5460 hc         1 1LS       0.050450
     44 H20          6.7660    -2.1540   -11.6400 hc         1 1LS       0.050450
     45 H21          3.3830    -3.4540   -12.3860 hc         1 1LS       0.050450
     46 H22          5.0800    -3.8960   -12.1260 hc         1 1LS       0.050450
     47 S18          5.9030    -3.9620    -8.4660 sy         1 1LS       1.426200
     48 H7           6.6620    -1.4940    -9.2910 h1         1 1LS       0.055700
@<TRIPOS>BOND
     1    24     8 1
     2    24     7 1
     3     8    25 1
     4     7    23 1
     5    25     9 1
     6    23     9 1
     7    23    47 1
     8    22    47 2
     9    47    21 2
    10    47     5 1
    11    19     5 ar
    12    19     4 ar
    13     5    20 ar
    14     4    18 ar
    15    20     6 ar
    16    18     6 ar
    17    18    17 1
    18    17    15 1
    19    16    15 2
    20    15    14 1
    21    14     3 1
    22     3    12 1
    23    12    11 ar
    24    12     1 ar
    25    11    10 ar
    26     1    13 ar
    27    10     2 ar
    28    13     2 ar
    29     1    26 1
    30     2    27 1
    31     3    28 1
    32     3    29 1
    33     4    30 1
    34     6    31 1
    35     7    48 1
    36     7    32 1
    37     8    33 1
    38     8    34 1
    39     9    35 1
    40     9    36 1
    41    10    37 1
    42    11    38 1
    43    14    39 1
    44    17    40 1
    45    19    41 1
    46    20    42 1
    47    24    43 1
    48    24    44 1
    49    25    45 1
    50    25    46 1
@<TRIPOS>SUBSTRUCTURE
     1 1LS         1 TEMP              0 ****  ****    0 ROOT
