@<TRIPOS>MOLECULE
1LS
   49    51     1     0     0
SMALL
bcc


@<TRIPOS>ATOM
      1 C4           1.9270    -2.1280     0.0850 ca         1 1LS       0.418200
      2 C6           2.2790    -2.0970     2.3620 ca         1 1LS       0.446200
      3 C7           1.9390    -0.0390    -1.3180 c3         1 1LS       0.163100
      4 C13          5.6300    -2.7400    -3.9820 ca         1 1LS      -0.163000
      5 C15          6.1470    -5.1120    -3.8230 ca         1 1LS      -0.318500
      6 C17          4.8740    -4.0320    -2.0580 ca         1 1LS      -0.163000
      7 C22          9.4150    -5.9650    -4.7010 c3         1 1LS       0.220800
      8 C24         11.0310    -7.5590    -3.6330 c3         1 1LS      -0.078400
      9 C26          8.7010    -7.2430    -2.7560 c3         1 1LS       0.220800
     10 C1           2.4680    -0.6980     2.3670 ca         1 1LS      -0.226300
     11 C2           2.3810    -0.0110     1.1590 ca         1 1LS      -0.074000
     12 C3           2.1130    -0.7330    -0.0160 ca         1 1LS      -0.316600
     13 N5           2.0160    -2.8020     1.2460 nb         1 1LS      -0.640000
     14 N8           3.2270     0.4810    -1.8780 ny         1 1LS      -0.652800
     15 C9           3.9920    -0.5160    -2.7720 cs         1 1LS       0.305400
     16 S10          4.2510     0.0450    -4.2060 s          1 1LS      -0.185400
     17 N11          4.3200    -1.6800    -2.1480 ns         1 1LS      -0.360100
     18 C12          4.9460    -2.8000    -2.7560 ca         1 1LS       0.044600
     19 C14          6.2180    -3.8960    -4.4980 ca         1 1LS       0.002500
     20 C16          5.4700    -5.1630    -2.6000 ca         1 1LS       0.002500
     21 O19          6.0600    -7.6170    -3.9810 o          1 1LS      -0.637300
     22 O20          6.7710    -6.3550    -5.9150 o          1 1LS      -0.637300
     23 N21          8.3180    -6.5610    -3.9720 n3         1 1LS      -0.824500
     24 C23         10.5920    -6.9140    -4.9290 c3         1 1LS      -0.091400
     25 C25          9.8610    -8.2230    -2.9380 c3         1 1LS      -0.091400
     26 S18          6.8040    -6.5500    -4.5210 sy         1 1LS       1.499200
     27 H1           1.6730    -2.7400    -0.8030 h4         1 1LS       0.039100
     28 H2           2.3350    -2.6830     3.3010 h4         1 1LS       0.058100
     29 H3           1.2520     0.8500    -1.1830 hx         1 1LS       0.116200
     30 H4           1.4760    -0.7260    -2.0850 hx         1 1LS       0.116200
     31 H5           5.7120    -1.8010    -4.5570 ha         1 1LS       0.161000
     32 H6           4.3460    -4.1150    -1.0950 ha         1 1LS       0.161000
     33 H9          11.4760    -6.7820    -2.9580 hc         1 1LS       0.049700
     34 H10         11.8280    -8.3200    -3.8410 hc         1 1LS       0.049700
     35 H11          7.8080    -7.8070    -2.3580 h1         1 1LS       0.052200
     36 H12          9.0040    -6.4700    -1.9910 h1         1 1LS       0.052200
     37 H13          2.6690    -0.1680     3.3100 ha         1 1LS       0.176000
     38 H14          2.5010     1.0830     1.1320 ha         1 1LS       0.146000
     39 H15          3.0340     1.2920    -2.4960 hn         1 1LS       0.461300
     40 H16          4.0180    -1.8440    -1.2020 hn         1 1LS       0.345500
     41 H17          6.7310    -3.8440    -5.4780 ha         1 1LS       0.175500
     42 H18          5.3860    -6.1290    -2.0660 ha         1 1LS       0.175500
     43 H19         10.3050    -7.7060    -5.6690 hc         1 1LS       0.058950
     44 H20         11.4350    -6.3240    -5.3720 hc         1 1LS       0.058950
     45 H21         10.1710    -8.5890    -1.9250 hc         1 1LS       0.058950
     46 H22          9.5210    -9.1110    -3.5320 hc         1 1LS       0.058950
     47 H7           9.7860    -5.0690    -4.1220 h1         1 1LS       0.052200
     48 H82          3.8260     0.7920    -1.1040 hn         1 1LS       0.461300
     49 H8           9.0350    -5.6090    -5.7020 h1         1 1LS       0.052200
@<TRIPOS>BOND
     1     1    12 ar  
     2     1    13 ar  
     3     1    27 1   
     4     2    10 ar  
     5     2    13 ar  
     6     2    28 1   
     7     3    12 1   
     8     3    14 1   
     9     3    29 1   
    10     3    30 1   
    11     4    18 ar  
    12     4    19 ar  
    13     4    31 1   
    14     5    19 ar  
    15     5    20 ar  
    16     5    26 1   
    17     6    18 ar  
    18     6    20 ar  
    19     6    32 1   
    20     7    23 1   
    21     7    24 1   
    22     7    47 1   
    23     7    49 1   
    24     8    24 1   
    25     8    25 1   
    26     8    33 1   
    27     8    34 1   
    28     9    23 1   
    29     9    25 1   
    30     9    35 1   
    31     9    36 1   
    32    10    11 ar  
    33    10    37 1   
    34    11    12 ar  
    35    11    38 1   
    36    14    15 1   
    37    14    39 1   
    38    14    48 1   
    39    15    16 2   
    40    15    17 1   
    41    17    18 1   
    42    17    40 1   
    43    19    41 1   
    44    20    42 1   
    45    21    26 2   
    46    22    26 2   
    47    23    26 1   
    48    24    43 1   
    49    24    44 1   
    50    25    45 1   
    51    25    46 1   
@<TRIPOS>SUBSTRUCTURE
     1 1LS         1 TEMP              0 ****  ****    0 ROOT
