@<TRIPOS>MOLECULE
1LS
   48    50     1     0     0
SMALL
bcc


@<TRIPOS>ATOM
      1 C4           0.0000     0.0000     0.0000 ca         1 1LS       0.424200
      2 C6          -0.0670    -0.0060     2.3020 ca         1 1LS       0.418200
      3 C7           2.1460     0.0020    -1.2990 c3         1 1LS       0.093300
      4 C13          5.0380    -2.4270    -4.8560 ca         1 1LS      -0.117000
      5 C15          5.1310    -3.6490    -6.9130 ca         1 1LS      -0.152500
      6 C17          3.4040    -4.1270    -5.3250 ca         1 1LS      -0.117000
      7 C22          5.7320    -1.6190    -9.8310 c3         1 1LS       0.232800
      8 C24          4.7010    -1.7800   -12.1000 c3         1 1LS      -0.023400
      9 C26          4.0080    -3.4000   -10.3290 c3         1 1LS       0.232800
     10 C1           1.3130    -0.0120     2.3810 ca         1 1LS      -0.222300
     11 C2           2.0570     0.0000     1.2120 ca         1 1LS      -0.048000
     12 C3           1.3820     0.0000     0.0000 ca         1 1LS      -0.260600
     13 N5          -0.6750    -0.0000     1.1320 nb         1 1LS      -0.579000
     14 N8           2.3940    -1.3800    -1.7210 ns         1 1LS      -0.056900
     15 C9           3.0660    -1.6240    -2.8630 cs         1 1LS       0.256400
     16 S10          3.6290    -0.3220    -3.8210 s          1 1LS      -0.709400
     17 N11          3.2950    -2.8950    -3.2510 ns         1 1LS       0.079900
     18 C12          3.9130    -3.1500    -4.4790 ca         1 1LS      -0.083400
     19 C14          5.6430    -2.6790    -6.0720 ca         1 1LS       0.007000
     20 C16          4.0110    -4.3700    -6.5410 ca         1 1LS       0.007000
     21 O19          7.2500    -3.5270    -8.3390 o          1 1LS      -0.590300
     22 O20          5.5450    -5.2870    -8.8320 o          1 1LS      -0.590300
     23 N21          5.1910    -2.9620    -9.5780 n3         1 1LS      -0.527500
     24 C23          5.9870    -1.4660   -11.3340 c3         1 1LS      -0.040400
     25 C25          4.2820    -3.2270   -11.8260 c3         1 1LS      -0.040400
     26 H1          -0.5350     0.0050    -0.9420 h4         1 1LS      -0.013900
     27 H2          -0.6560    -0.0110     3.2120 h4         1 1LS      -0.016900
     28 H3           1.5660     0.5130    -2.0580 h1         1 1LS       0.058200
     29 H4           3.0910     0.5130    -1.1610 h1         1 1LS       0.058200
     30 H5           5.4390    -1.6660    -4.1980 ha         1 1LS       0.135500
     31 H6           2.5270    -4.6930    -5.0340 ha         1 1LS       0.135500
     32 H8           5.0150    -0.8730    -9.5080 h1         1 1LS       0.023200
     33 H9           4.8740    -1.6510   -13.1620 hc         1 1LS       0.013200
     34 H10          3.9140    -1.1110   -11.7730 hc         1 1LS       0.013200
     35 H11          3.8090    -4.4440   -10.1160 h1         1 1LS       0.023200
     36 H12          3.1540    -2.7970   -10.0460 h1         1 1LS       0.023200
     37 H13          1.8070    -0.0140     3.3450 ha         1 1LS       0.118000
     38 H14          3.1400    -0.0020     1.2430 ha         1 1LS       0.115000
     39 H15          2.0330    -2.1410    -1.1800 hn         1 1LS       0.161500
     40 H16          2.9680    -3.6560    -2.6890 hn         1 1LS       0.153500
     41 H17          6.5210    -2.1160    -6.3660 ha         1 1LS       0.125000
     42 H18          3.6130    -5.1310    -7.2020 ha         1 1LS       0.125000
     43 H19          6.2930    -0.4490   -11.5460 hc         1 1LS       0.020450
     44 H20          6.7660    -2.1540   -11.6400 hc         1 1LS       0.020450
     45 H21          3.3830    -3.4540   -12.3860 hc         1 1LS       0.020450
     46 H22          5.0800    -3.8960   -12.1260 hc         1 1LS       0.020450
     47 S18          5.9030    -3.9620    -8.4660 sy         1 1LS       1.052200
     48 H7           6.6620    -1.4940    -9.2910 h1         1 1LS       0.023200
@<TRIPOS>BOND
     1     1    12 ar  
     2     1    13 ar  
     3     1    26 1   
     4     2    10 ar  
     5     2    13 ar  
     6     2    27 1   
     7     3    12 1   
     8     3    14 1   
     9     3    28 1   
    10     3    29 1   
    11     4    18 ar  
    12     4    19 ar  
    13     4    30 1   
    14     5    19 ar  
    15     5    20 ar  
    16     5    47 1   
    17     6    18 ar  
    18     6    20 ar  
    19     6    31 1   
    20     7    23 1   
    21     7    24 1   
    22     7    32 1   
    23     7    48 1   
    24     8    24 1   
    25     8    25 1   
    26     8    33 1   
    27     8    34 1   
    28     9    23 1   
    29     9    25 1   
    30     9    35 1   
    31     9    36 1   
    32    10    11 ar  
    33    10    37 1   
    34    11    12 ar  
    35    11    38 1   
    36    14    15 1   
    37    14    39 1   
    38    15    16 2   
    39    15    17 1   
    40    17    18 1   
    41    17    40 1   
    42    19    41 1   
    43    20    42 1   
    44    21    47 2   
    45    22    47 2   
    46    23    47 1   
    47    24    43 1   
    48    24    44 1   
    49    25    45 1   
    50    25    46 1   
@<TRIPOS>SUBSTRUCTURE
     1 1LS         1 TEMP              0 ****  ****    0 ROOT
