@<TRIPOS>MOLECULE
1LT
   53    55     1     0     0
SMALL
bcc


@<TRIPOS>ATOM
      1 C1           0.0000     0.0000     0.0000 cc         1 1LT       0.356600
      2 C2           0.2700    -0.0020     2.2130 cd         1 1LT       0.378300
      3 C3          -1.4350    -0.0020     3.8570 c          1 1LT       0.589100
      4 O1          -3.2950     2.1710     4.7190 o          1 1LT      -0.379100
      5 C11          1.9850    -0.8820    -2.2550 ca         1 1LT      -0.205300
      6 C12          2.8210    -0.8460    -3.3510 ca         1 1LT       0.412200
      7 C13          4.0890     0.8490    -2.4250 ca         1 1LT       0.373600
      8 C14          3.2990     0.8890    -1.2980 ca         1 1LT      -0.196300
      9 C15          5.2590     1.7910    -2.5480 c3         1 1LT      -0.168300
     10 C16          6.0410     1.8070    -1.2330 c3         1 1LT       0.004900
     11 C17          6.1750     1.3240    -3.6810 c3         1 1LT       0.004900
     12 C18          4.7470     3.2010    -2.8550 c3         1 1LT       0.581900
     13 F2           4.0320     3.1860    -4.0570 f          1 1LT      -0.206633
     14 F            3.9100     3.6280    -1.8180 f          1 1LT      -0.206633
     15 F1           5.8320     4.0750    -2.9670 f          1 1LT      -0.206633
     16 N4           3.8310     0.0020    -3.4060 nb         1 1LT      -0.542000
     17 C10          2.2180     0.0020    -1.1940 ca         1 1LT       0.029000
     18 C9           1.3500     0.0000     0.0000 cd         1 1LT      -0.045400
     19 C           -0.8170     0.0000    -1.2650 c3         1 1LT      -0.023400
     20 S            1.8930     0.0000     1.6760 ss         1 1LT      -0.274300
     21 N           -0.5410    -0.0060     1.1990 nc         1 1LT      -0.533000
     22 N1          -0.1250    -0.0020     3.5430 ns         1 1LT      -0.054400
     23 O           -2.2720    -0.0020     2.9750 o          1 1LT      -0.655100
     24 N2          -1.8200    -0.0040     5.1490 n          1 1LT      -0.179800
     25 C7          -3.2080    -0.0050     5.6310 c3         1 1LT      -0.007300
     26 C8          -3.9280     1.2180     5.1200 c          1 1LT       0.298100
     27 N3          -5.2760     1.2510     5.1110 nz         1 1LT       0.204600
     28 C6          -3.1590     0.0210     7.1720 c3         1 1LT      -0.027400
     29 C5          -1.7520     0.6060     7.4660 c3         1 1LT      -0.023400
     30 C4          -0.9150    -0.0110     6.3140 c3         1 1LT       0.047000
     31 H1           1.1590    -1.5820    -2.2170 ha         1 1LT       0.125000
     32 H2           2.6470    -1.5240    -4.1770 h4         1 1LT      -0.010900
     33 H3           3.5140     1.5890    -0.5000 ha         1 1LT       0.136000
     34 H4           5.5030     2.3960    -0.5010 hc         1 1LT       0.023867
     35 H5           6.1550     0.7940    -0.8690 hc         1 1LT       0.023867
     36 H6           7.0180     2.2440    -1.4000 hc         1 1LT       0.023867
     37 H7           7.0320     1.9820    -3.7460 hc         1 1LT       0.023867
     38 H8           6.5090     0.3130    -3.4810 hc         1 1LT       0.023867
     39 H9           5.6300     1.3450    -4.6170 hc         1 1LT       0.023867
     40 H10         -1.8360     0.2880    -1.0370 hc         1 1LT       0.021367
     41 H11         -0.3920     0.7050    -1.9700 hc         1 1LT       0.021367
     42 H12         -0.8110    -0.9920    -1.6990 hc         1 1LT       0.021367
     43 H13          0.5630    -0.0230     4.2690 hn         1 1LT       0.175500
     44 H14         -3.7120    -0.9030     5.2950 h1         1 1LT       0.059700
     45 H15         -5.6330     0.3250     5.2400 hn         1 1LT       0.245467
     46 H16         -5.6000     1.8400     5.8520 hn         1 1LT       0.245467
     47 H17         -3.9320     0.6690     7.5680 hc         1 1LT       0.033200
     48 H18         -3.2470    -0.9810     7.5740 hc         1 1LT       0.033200
     49 H19         -1.7610     1.6870     7.4010 hc         1 1LT       0.044200
     50 H20         -1.3880     0.2700     8.4300 hc         1 1LT       0.044200
     51 H21         -0.6270    -1.0260     6.5600 h1         1 1LT       0.036200
     52 H22         -0.0420     0.5990     6.1150 h1         1 1LT       0.036200
     53 H33         -5.5950     1.5780     4.2210 hn         1 1LT       0.245467
@<TRIPOS>BOND
     1     1    18 2   
     2     1    19 1   
     3     1    21 1   
     4     2    20 1   
     5     2    21 2   
     6     2    22 1   
     7     3    22 1   
     8     3    23 2   
     9     3    24 1   
    10     4    26 2   
    11     5     6 ar  
    12     5    17 ar  
    13     5    31 1   
    14     6    16 ar  
    15     6    32 1   
    16     7     8 ar  
    17     7     9 1   
    18     7    16 ar  
    19     8    17 ar  
    20     8    33 1   
    21     9    10 1   
    22     9    11 1   
    23     9    12 1   
    24    10    34 1   
    25    10    35 1   
    26    10    36 1   
    27    11    37 1   
    28    11    38 1   
    29    11    39 1   
    30    12    13 1   
    31    12    14 1   
    32    12    15 1   
    33    17    18 1   
    34    18    20 1   
    35    19    40 1   
    36    19    41 1   
    37    19    42 1   
    38    22    43 1   
    39    24    25 1   
    40    24    30 1   
    41    25    26 1   
    42    25    28 1   
    43    25    44 1   
    44    26    27 1   
    45    27    45 1   
    46    27    46 1   
    47    27    53 1   
    48    28    29 1   
    49    28    47 1   
    50    28    48 1   
    51    29    30 1   
    52    29    49 1   
    53    29    50 1   
    54    30    51 1   
    55    30    52 1   
@<TRIPOS>SUBSTRUCTURE
     1 1LT         1 TEMP              0 ****  ****    0 ROOT
