@<TRIPOS>MOLECULE
1LT
   53    55     1     0     0
SMALL
bcc


@<TRIPOS>ATOM
      1 C1           1.3430    -0.8640     0.9460 cc         1 1LT       0.381600
      2 C2           1.7920    -0.0400     2.9700 cd         1 1LT       0.390300
      3 C3           0.9860    -0.5680     5.1700 c          1 1LT       0.753100
      4 O1          -2.1930    -2.3760     7.7830 o          1 1LT      -0.406100
      5 C11          3.4790    -1.8370    -1.1530 ca         1 1LT      -0.220300
      6 C12          4.2660    -1.8970    -2.3170 ca         1 1LT       0.407200
      7 C13          5.0330     0.2690    -2.0530 ca         1 1LT       0.412600
      8 C14          4.2800     0.4180    -0.8670 ca         1 1LT      -0.228300
      9 C15          5.8890     1.4270    -2.5290 c3         1 1LT      -0.115300
     10 C16          6.8700     1.8270    -1.4370 c3         1 1LT      -0.097100
     11 C17          6.6600     1.1140    -3.8050 c3         1 1LT      -0.097100
     12 C18          4.9600     2.6660    -2.8450 c3         1 1LT       0.622900
     13 F2           5.6350     3.7290    -3.3900 f          1 1LT      -0.236633
     14 F            3.9490     2.4070    -3.7330 f          1 1LT      -0.236633
     15 F1           4.3270     3.2090    -1.7530 f          1 1LT      -0.236633
     16 N4           5.0220    -0.8830    -2.7680 nb         1 1LT      -0.633000
     17 C10          3.4860    -0.6470    -0.4130 ca         1 1LT       0.011000
     18 C9           2.6970    -0.5090     0.7890 cd         1 1LT      -0.164400
     19 C            0.5050    -1.4620    -0.1210 c3         1 1LT      -0.135400
     20 S            3.3110     0.1310     2.2060 ss         1 1LT       0.087700
     21 N            0.8260    -0.5940     2.1970 nc         1 1LT      -0.664000
     22 N1           1.6060     0.3640     4.3150 ns         1 1LT      -0.452400
     23 O            1.1450    -1.8080     5.0290 o          1 1LT      -0.652100
     24 N2           0.1390    -0.1360     6.2240 n          1 1LT      -0.476800
     25 C7          -0.1410    -1.0800     7.2950 c3         1 1LT       0.040700
     26 C8          -1.3510    -1.9730     6.9980 c          1 1LT       0.539100
     27 N3          -1.4770    -2.4900     5.5890 nz         1 1LT      -0.759400
     28 C6          -0.3880    -0.2680     8.5900 c3         1 1LT      -0.087400
     29 C5          -0.3330     1.2000     8.1870 c3         1 1LT      -0.094400
     30 C4           0.1580     1.2330     6.7320 c3         1 1LT       0.063000
     31 H1           2.8790    -2.7000    -0.8370 ha         1 1LT       0.152000
     32 H2           4.2910    -2.8170    -2.9330 h4         1 1LT       0.038100
     33 H3           4.2970     1.3720    -0.3180 ha         1 1LT       0.158000
     34 H4           7.5450     0.9690    -1.2040 hc         1 1LT       0.061033
     35 H5           7.4900     2.6890    -1.7870 hc         1 1LT       0.061033
     36 H6           6.3320     2.1310    -0.5070 hc         1 1LT       0.061033
     37 H7           7.3370     0.2410    -3.6420 hc         1 1LT       0.061033
     38 H8           5.9580     0.8790    -4.6410 hc         1 1LT       0.061033
     39 H9           7.2790     1.9980    -4.0950 hc         1 1LT       0.061033
     40 H10          0.9400    -1.2220    -1.1230 hc         1 1LT       0.064033
     41 H11         -0.5430    -1.0730    -0.0830 hc         1 1LT       0.064033
     42 H12          0.4750    -2.5750    -0.0000 hc         1 1LT       0.064033
     43 H13          1.3070     1.3190     4.3980 hn         1 1LT       0.321500
     44 H14          0.7170    -1.8110     7.4350 h1         1 1LT       0.126700
     45 H15         -2.2080    -3.2060     5.5260 hn         1 1LT       0.479467
     46 H16         -0.5670    -2.8840     5.2850 hn         1 1LT       0.479467
     47 H17         -1.3710    -0.5280     9.0580 hc         1 1LT       0.092700
     48 H18          0.4180    -0.5140     9.3270 hc         1 1LT       0.092700
     49 H19          0.3650     1.7720     8.8470 hc         1 1LT       0.083200
     50 H20         -1.3430     1.6740     8.2670 hc         1 1LT       0.083200
     51 H21          1.1940     1.6710     6.6890 h1         1 1LT       0.072700
     52 H22         -0.5230     1.8550     6.0880 h1         1 1LT       0.072700
     53 H33         -1.7060    -1.7160     4.9560 hn         1 1LT       0.479467
@<TRIPOS>BOND
     1     1    18 2   
     2     1    19 1   
     3     1    21 1   
     4     2    20 1   
     5     2    21 2   
     6     2    22 1   
     7     3    22 1   
     8     3    23 2   
     9     3    24 1   
    10     4    26 2   
    11     5     6 ar  
    12     5    17 ar  
    13     5    31 1   
    14     6    16 ar  
    15     6    32 1   
    16     7     8 ar  
    17     7     9 1   
    18     7    16 ar  
    19     8    17 ar  
    20     8    33 1   
    21     9    10 1   
    22     9    11 1   
    23     9    12 1   
    24    10    34 1   
    25    10    35 1   
    26    10    36 1   
    27    11    37 1   
    28    11    38 1   
    29    11    39 1   
    30    12    13 1   
    31    12    14 1   
    32    12    15 1   
    33    17    18 1   
    34    18    20 1   
    35    19    40 1   
    36    19    41 1   
    37    19    42 1   
    38    22    43 1   
    39    24    25 1   
    40    24    30 1   
    41    25    26 1   
    42    25    28 1   
    43    25    44 1   
    44    26    27 1   
    45    27    45 1   
    46    27    46 1   
    47    27    53 1   
    48    28    29 1   
    49    28    47 1   
    50    28    48 1   
    51    29    30 1   
    52    29    49 1   
    53    29    50 1   
    54    30    51 1   
    55    30    52 1   
@<TRIPOS>SUBSTRUCTURE
     1 1LT         1 TEMP              0 ****  ****    0 ROOT
