@<TRIPOS>MOLECULE
1LU
   20    19     1     0     0
SMALL
bcc


@<TRIPOS>ATOM
      1 OS           0.0380    -0.3050    -0.2120 oh         1 1LU      -0.649800
      2 CA           1.4520    -0.2400    -0.1140 c3         1 1LU       0.014100
      3 C            1.9270    -0.2640     1.3630 c          1 1LU       0.892600
      4 O            3.1570    -0.4070     1.5960 o          1 1LU      -0.837800
      5 CB           1.9620     1.0250    -0.7950 c3         1 1LU      -0.079400
      6 CG           1.7330     1.0180    -2.3000 c3         1 1LU      -0.071700
      7 CD1          1.7560     2.4300    -2.8480 c3         1 1LU      -0.082600
      8 CD2          2.7660     0.1690    -3.0100 c3         1 1LU      -0.082600
      9 OXT          1.0290    -0.1410     2.2480 o          1 1LU      -0.837800
     10 HOS         -0.3120    -0.1180     0.6740 ho         1 1LU       0.423000
     11 HA           1.8410    -1.1510    -0.6450 h1         1 1LU       0.036700
     12 HB1          3.0560     1.1240    -0.5690 hc         1 1LU       0.045200
     13 HB2          1.4330     1.9060    -0.3460 hc         1 1LU       0.045200
     14 HG           0.7130     0.5760    -2.4880 hc         1 1LU       0.057700
     15 HD11         2.7340     2.9210    -2.6240 hc         1 1LU       0.020867
     16 HD12         1.6100     2.4230    -3.9560 hc         1 1LU       0.020867
     17 HD13         0.9420     3.0390    -2.3870 hc         1 1LU       0.020867
     18 HD21         2.5530     0.1280    -4.1050 hc         1 1LU       0.020867
     19 HD22         3.7890     0.5910    -2.8640 hc         1 1LU       0.020867
     20 HD23         2.7540    -0.8720    -2.6040 hc         1 1LU       0.020867
@<TRIPOS>BOND
     1     1     2 1   
     2     1    10 1   
     3     2     3 1   
     4     2     5 1   
     5     2    11 1   
     6     3     4 1   
     7     3     9 1   
     8     5     6 1   
     9     5    12 1   
    10     5    13 1   
    11     6     7 1   
    12     6     8 1   
    13     6    14 1   
    14     7    15 1   
    15     7    16 1   
    16     7    17 1   
    17     8    18 1   
    18     8    19 1   
    19     8    20 1   
@<TRIPOS>SUBSTRUCTURE
     1 1LU         1 TEMP              0 ****  ****    0 ROOT
