@<TRIPOS>MOLECULE
1LU
   20    19     1     0     0
SMALL
bcc


@<TRIPOS>ATOM
      1 OS         -0.0880   -0.0160   -0.0290 oh        1 1LU     -0.649800
      2 CA          1.3280   -0.1060   -0.0320 c3        1 1LU      0.014100
      3 C           1.9010   -0.1840    1.4080 c         1 1LU      0.892600
      4 O           1.0880    0.0360    2.3530 o         1 1LU     -0.837800
      5 CB          1.9230    1.0950   -0.7570 c3        1 1LU     -0.079400
      6 CG          1.5880    1.1150   -2.2410 c3        1 1LU     -0.071700
      7 CD1         1.7270    2.5160   -2.8000 c3        1 1LU     -0.082600
      8 CD2         2.4670    0.1570   -3.0170 c3        1 1LU     -0.082600
      9 OXT         3.1220   -0.4600    1.5540 o         1 1LU     -0.837800
     10 HOS        -0.3520    0.2080    0.8790 ho        1 1LU      0.423000
     11 HA          1.5750   -1.0540   -0.5820 h1        1 1LU      0.036700
     12 HB1         1.5280    2.0290   -0.2780 hc        1 1LU      0.045200
     13 HB2         3.0340    1.0730   -0.6100 hc        1 1LU      0.045200
     14 HG          0.5140    0.7880   -2.3530 hc        1 1LU      0.057700
     15 HD11        1.5020    2.5260   -3.8940 hc        1 1LU      0.020867
     16 HD12        1.0200    3.2110   -2.2860 hc        1 1LU      0.020867
     17 HD13        2.7660    2.8950   -2.6490 hc        1 1LU      0.020867
     18 HD21        2.1730    0.1410   -4.0940 hc        1 1LU      0.020867
     19 HD22        2.3700   -0.8760   -2.6040 hc        1 1LU      0.020867
     20 HD23        3.5380    0.4640   -2.9470 hc        1 1LU      0.020867
@<TRIPOS>BOND
     1    1    2 1   
     2    1   10 1   
     3    2    3 1   
     4    2    5 1   
     5    2   11 1   
     6    3    4 1   
     7    3    9 1   
     8    5    6 1   
     9    5   12 1   
    10    5   13 1   
    11    6    7 1   
    12    6    8 1   
    13    6   14 1   
    14    7   15 1   
    15    7   16 1   
    16    7   17 1   
    17    8   18 1   
    18    8   19 1   
    19    8   20 1   
@<TRIPOS>SUBSTRUCTURE
     1 1LU         1 TEMP              0 ****  ****    0 ROOT
