@<TRIPOS>MOLECULE
molecule
   20    19     1     0     0
SMALL
bcc


@<TRIPOS>ATOM
      1 OS           0.0000     0.0000     0.0000 oh         1 1LU      -0.620800
      2 CA           1.4290     0.0000     0.0000 c3         1 1LU       0.036100
      3 C            1.9310     0.0000     1.4220 c          1 1LU       0.867600
      4 O            1.1490     0.0910     2.3380 o          1 1LU      -0.845300
      5 CB           1.9400     1.2500    -0.7210 c3         1 1LU      -0.048400
      6 CG           1.5000     1.2090    -2.1850 c3         1 1LU      -0.082700
      7 CD1          1.8830     2.5230    -2.8690 c3         1 1LU      -0.085600
      8 CD2          2.1950     0.0440    -2.8930 c3         1 1LU      -0.085600
      9 OXT          3.2460    -0.1020     1.6690 o          1 1LU      -0.845300
     10 HOS         -0.3140    -0.8570     0.2350 ho         1 1LU       0.389000
     11 HA           1.7910    -0.8840    -0.5110 h1         1 1LU       0.014700
     12 HB1          3.0210     1.2800    -0.6690 hc         1 1LU       0.055200
     13 HB2          1.5300     2.1330    -0.2450 hc         1 1LU       0.055200
     14 HG           0.4270     1.0750    -2.2370 hc         1 1LU       0.055700
     15 HD11         1.5330     2.5120    -3.8940 hc         1 1LU       0.023367
     16 HD12         2.9600     2.6360    -2.8570 hc         1 1LU       0.023367
     17 HD13         1.4270     3.3510    -2.3410 hc         1 1LU       0.023367
     18 HD21         3.1980    -0.0710    -2.5020 hc         1 1LU       0.023367
     19 HD22         2.2430     0.2440    -3.9570 hc         1 1LU       0.023367
     20 HD23         1.6350    -0.8680    -2.7230 hc         1 1LU       0.023367
@<TRIPOS>BOND
     1     1     2 1
     2     1    10 1
     3     2     3 1
     4     2     5 1
     5     2    11 1
     6     3     4 1
     7     3     9 1
     8     5     6 1
     9     5    12 1
    10     5    13 1
    11     6     7 1
    12     6     8 1
    13     6    14 1
    14     7    15 1
    15     7    16 1
    16     7    17 1
    17     8    18 1
    18     8    19 1
    19     8    20 1
@<TRIPOS>SUBSTRUCTURE
     1 1LU         1 TEMP              0 ****  ****    0 ROOT
