@<TRIPOS>MOLECULE
1LW
   26    28     1     0     0
SMALL
bcc


@<TRIPOS>ATOM
      1 C01         -0.0000     0.0130    -0.0070 cc         1 1LW      -0.113200
      2 C02          1.3660     0.0330     0.0350 cd         1 1LW      -0.175400
      3 S03          1.9860     0.0330     1.6000 ss         1 1LW      -0.039900
      4 C04          0.4410     0.0050     2.3180 ca         1 1LW       0.445600
      5 C05         -0.5710    -0.0050     1.3110 ca         1 1LW      -0.257100
      6 C06         -1.9320    -0.0270     1.7200 ca         1 1LW       0.224600
      7 C07         -2.1960    -0.0270     3.1130 ca         1 1LW      -0.266600
      8 C08         -1.1010    -0.0300     4.0250 ca         1 1LW       0.469600
      9 N09          0.1930    -0.0150     3.6440 nb         1 1LW      -0.676000
     10 C10         -1.3590    -0.0330     5.5090 c3         1 1LW      -0.131700
     11 C11         -2.7300    -0.5690     5.8530 c3         1 1LW      -0.078400
     12 C12         -3.7880     0.1680     5.0660 c3         1 1LW      -0.075400
     13 C13         -3.6090    -0.0450     3.5780 c3         1 1LW      -0.019100
     14 N14         -2.9440     0.0130     0.7720 nv         1 1LW      -0.829200
     15 H011        -0.5990     0.0190    -0.9200 ha         1 1LW       0.147000
     16 H021         2.0260     0.0520    -0.8320 h4         1 1LW       0.170000
     17 H101        -1.2640     1.0270     5.8750 hc         1 1LW       0.065200
     18 H102        -0.5780    -0.6400     6.0400 hc         1 1LW       0.065200
     19 H112        -2.9110    -0.4420     6.9520 hc         1 1LW       0.045700
     20 H111        -2.7810    -1.6660     5.6260 hc         1 1LW       0.045700
     21 H121        -4.8080    -0.1850     5.3690 hc         1 1LW       0.043700
     22 H122        -3.7300     1.2640     5.3000 hc         1 1LW       0.043700
     23 H132        -4.0620    -1.0370     3.2950 hc         1 1LW       0.042200
     24 H131        -4.1950     0.7530     3.0430 hc         1 1LW       0.042200
     25 H142        -2.6790    -0.2400    -0.1520 hn         1 1LW       0.405800
     26 H141        -3.8300    -0.3320     1.0620 hn         1 1LW       0.405800
@<TRIPOS>BOND
     1     1     2 2   
     2     1     5 1   
     3     1    15 1   
     4     2     3 1   
     5     2    16 1   
     6     3     4 1   
     7     4     5 ar  
     8     4     9 ar  
     9     5     6 ar  
    10     6     7 ar  
    11     6    14 1   
    12     7     8 ar  
    13     7    13 1   
    14     8     9 ar  
    15     8    10 1   
    16    10    11 1   
    17    10    17 1   
    18    10    18 1   
    19    11    12 1   
    20    11    19 1   
    21    11    20 1   
    22    12    13 1   
    23    12    21 1   
    24    12    22 1   
    25    13    23 1   
    26    13    24 1   
    27    14    25 1   
    28    14    26 1   
@<TRIPOS>SUBSTRUCTURE
     1 1LW         1 TEMP              0 ****  ****    0 ROOT
