@<TRIPOS>MOLECULE
1LW
   26    28     1     0     0
SMALL
bcc


@<TRIPOS>ATOM
      1 C01          0.0000     0.0000     0.0000 cc         1 1LW      -0.077200
      2 C02          1.3180     0.0000     0.0000 cd         1 1LW      -0.020400
      3 S03          1.9590     0.0000     1.6310 ss         1 1LW      -0.309900
      4 C04          0.3460    -0.0010     2.3380 ca         1 1LW       0.529600
      5 C05         -0.6080     0.0060     1.3180 ca         1 1LW      -0.263100
      6 C06         -1.9760     0.0080     1.6880 ca         1 1LW       0.109600
      7 C07         -2.3130     0.0030     3.0380 ca         1 1LW      -0.274600
      8 C08         -1.3110    -0.0100     3.9840 ca         1 1LW       0.437600
      9 N09         -0.0410     0.0020     3.6130 nb         1 1LW      -0.579000
     10 C10         -1.6020    -0.0220     5.4640 c3         1 1LW      -0.067700
     11 C11         -3.0430     0.4060     5.7320 c3         1 1LW      -0.027400
     12 C12         -3.9710    -0.4400     4.8520 c3         1 1LW      -0.024400
     13 C13         -3.7750     0.0180     3.3990 c3         1 1LW       0.049900
     14 N14         -2.9680     0.0160     0.7140 nv         1 1LW      -0.451200
     15 H011        -0.5840    -0.0000    -0.9130 ha         1 1LW       0.113000
     16 H021         1.9280     0.0010    -0.8950 h4         1 1LW       0.147000
     17 H101        -0.9290     0.6640     5.9640 hc         1 1LW       0.030700
     18 H102        -1.4500    -1.0230     5.8480 hc         1 1LW       0.030700
     19 H112        -3.2820     0.2410     6.7760 hc         1 1LW       0.017700
     20 H111        -3.1630     1.4540     5.4850 hc         1 1LW       0.017700
     21 H121        -5.0010    -0.2840     5.1500 hc         1 1LW       0.017700
     22 H122        -3.7100    -1.4870     4.9440 hc         1 1LW       0.017700
     23 H132        -4.1590     1.0250     3.2870 hc         1 1LW       0.014700
     24 H131        -4.3120    -0.6520     2.7380 hc         1 1LW       0.014700
     25 H142        -3.8240     0.5080     0.8760 hn         1 1LW       0.273300
     26 H141        -2.8360    -0.4920    -0.1380 hn         1 1LW       0.273300
@<TRIPOS>BOND
     1     1     2 2   
     2     1     5 1   
     3     1    15 1   
     4     2     3 1   
     5     2    16 1   
     6     3     4 1   
     7     4     5 ar  
     8     4     9 ar  
     9     5     6 ar  
    10     6     7 ar  
    11     6    14 1   
    12     7     8 ar  
    13     7    13 1   
    14     8     9 ar  
    15     8    10 1   
    16    10    11 1   
    17    10    17 1   
    18    10    18 1   
    19    11    12 1   
    20    11    19 1   
    21    11    20 1   
    22    12    13 1   
    23    12    21 1   
    24    12    22 1   
    25    13    23 1   
    26    13    24 1   
    27    14    25 1   
    28    14    26 1   
@<TRIPOS>SUBSTRUCTURE
     1 1LW         1 TEMP              0 ****  ****    0 ROOT
