@<TRIPOS>MOLECULE
molecule
   17    18     1     0     0
SMALL
bcc


@<TRIPOS>ATOM
      1 C01          0.0000     0.0000     0.0000 cc         1 1LX      -0.126000
      2 C02          1.3990     0.0000     0.0000 cc         1 1LX      -0.170000
      3 C03          2.0830     0.0000     1.1780 cd         1 1LX       0.200300
      4 N04          1.4130    -0.0000     2.3680 na         1 1LX       0.030700
      5 C05          1.8360    -0.0010     3.6740 cd         1 1LX      -0.249100
      6 C06          0.7330    -0.0010     4.4500 cc         1 1LX       0.033600
      7 N07         -0.3470    -0.0000     3.6610 nc         1 1LX      -0.320600
      8 C08          0.0410    -0.0000     2.3920 cd         1 1LX      -0.020300
      9 C09         -0.6770     0.0060     1.1820 cd         1 1LX      -0.092000
     10 N10          3.4670     0.0000     1.1680 nv         1 1LX      -0.973200
     11 H1          -0.5430     0.0000    -0.9370 ha         1 1LX       0.142000
     12 H2           1.9390    -0.0050    -0.9390 ha         1 1LX       0.152000
     13 H3           2.8640    -0.0020     4.0170 h4         1 1LX       0.178000
     14 H4           0.7230    -0.0030     5.5330 h4         1 1LX       0.180000
     15 H5          -1.7600     0.0060     1.1900 ha         1 1LX       0.159000
     16 H6           3.9670    -0.8670     1.1470 hn         1 1LX       0.438800
     17 H7           3.9670     0.8670     1.1470 hn         1 1LX       0.438800
@<TRIPOS>BOND
     1     6     7 1   
     2     6     5 2   
     3     7     8 2   
     4     5     4 1   
     5     8     4 1   
     6     8     9 1   
     7     4     3 1   
     8     9     1 2   
     9     3    10 1   
    10     3     2 2   
    11     1     2 1   
    12     1    11 1   
    13     2    12 1   
    14     5    13 1   
    15     6    14 1   
    16     9    15 1   
    17    10    16 1   
    18    10    17 1   
@<TRIPOS>SUBSTRUCTURE
     1 1LX         1 TEMP              0 ****  ****    0 ROOT
