@<TRIPOS>MOLECULE
1LX
   17    18     1     0     0
SMALL
bcc


@<TRIPOS>ATOM
      1 C01         -0.0320     0.1190    -0.0070 cc         1 1LX      -0.087000
      2 C02          1.3860     0.0720     0.0080 cc         1 1LX      -0.241000
      3 C03          2.0940    -0.0050     1.2100 cd         1 1LX       0.188300
      4 N04          1.3660    -0.0210     2.4010 na         1 1LX      -0.010300
      5 C05          1.7670    -0.0940     3.7370 cc         1 1LX      -0.244100
      6 C06          0.5780    -0.0750     4.4960 cd         1 1LX       0.020600
      7 N07         -0.5400     0.0040     3.6830 nd         1 1LX      -0.293600
      8 C08         -0.0710     0.0340     2.4020 cd         1 1LX      -0.002300
      9 C09         -0.7610     0.1050     1.1480 cd         1 1LX      -0.131000
     10 N10          3.4950    -0.1440     1.2400 nv         1 1LX      -0.813200
     11 H1          -0.5360     0.1710    -0.9850 ha         1 1LX       0.141000
     12 H2           1.9290     0.0850    -0.9470 ha         1 1LX       0.147000
     13 H3           2.8060    -0.1720     4.0440 h4         1 1LX       0.178000
     14 H4           0.4850    -0.1150     5.5820 h4         1 1LX       0.180000
     15 H5          -1.8590     0.1450     1.1670 ha         1 1LX       0.164000
     16 H6           3.9280     0.1760     0.4010 hn         1 1LX       0.401300
     17 H7           3.9420     0.1970     2.0640 hn         1 1LX       0.401300
@<TRIPOS>BOND
     1     1     2 1   
     2     1     9 2   
     3     1    11 1   
     4     2     3 2   
     5     2    12 1   
     6     3     4 1   
     7     3    10 1   
     8     4     5 1   
     9     4     8 1   
    10     5     6 2   
    11     5    13 1   
    12     6     7 1   
    13     6    14 1   
    14     7     8 2   
    15     8     9 1   
    16     9    15 1   
    17    10    16 1   
    18    10    17 1   
@<TRIPOS>SUBSTRUCTURE
     1 1LX         1 TEMP              0 ****  ****    0 ROOT
