@<TRIPOS>MOLECULE
1LY
   17    18     1     0     0
SMALL
bcc


@<TRIPOS>ATOM
      1 CAC          0.0000     0.0000     0.0000 cc         1 1LY      -0.148000
      2 CAD          1.3590     0.0000     0.0000 cd         1 1LY      -0.016000
      3 CAI          2.0520     0.0000     1.2270 cd         1 1LY      -0.255300
      4 NAG          3.3470    -0.0010     1.5200 nc         1 1LY      -0.252600
      5 CAB          3.4950     0.0000     2.8460 cc         1 1LY       0.061600
      6 CAE          2.2700     0.0020     3.4170 cd         1 1LY      -0.457100
      7 NAJ          1.3510     0.0020     2.4030 na         1 1LY       0.635700
      8 CAF         -0.0160     0.0030     2.3960 cd         1 1LY      -0.303300
      9 CAH         -0.6980     0.0020     1.2240 cc         1 1LY       0.050600
     10 NAA         -2.0990     0.0080     1.2310 nv         1 1LY      -0.552200
     11 H1          -0.5440    -0.0010    -0.9370 ha         1 1LY       0.120000
     12 H2           1.9050    -0.0020    -0.9360 ha         1 1LY       0.123000
     13 H3           4.4400    -0.0000     3.3760 h4         1 1LY       0.138000
     14 H4           2.0550     0.0020     4.4790 h4         1 1LY       0.159000
     15 H5          -0.5590     0.0050     3.3340 h4         1 1LY       0.142000
     16 H6          -2.6030    -0.8560     1.2370 hn         1 1LY       0.277800
     17 H7          -2.5960     0.8770     1.2340 hn         1 1LY       0.277800
@<TRIPOS>BOND
     1     1     2 2   
     2     1     9 1   
     3     1    11 1   
     4     2     3 1   
     5     2    12 1   
     6     3     4 2   
     7     3     7 1   
     8     4     5 1   
     9     5     6 2   
    10     5    13 1   
    11     6     7 1   
    12     6    14 1   
    13     7     8 1   
    14     8     9 2   
    15     8    15 1   
    16     9    10 1   
    17    10    16 1   
    18    10    17 1   
@<TRIPOS>SUBSTRUCTURE
     1 1LY         1 TEMP              0 ****  ****    0 ROOT
