@<TRIPOS>MOLECULE
1LY
   17    18     1     0     0
SMALL
bcc


@<TRIPOS>ATOM
      1 CAC          0.0090    -0.1000    -0.0430 cc         1 1LY      -0.162000
      2 CAD          1.3730    -0.1110    -0.0680 cd         1 1LY      -0.056000
      3 CAI          2.1070    -0.0360     1.1590 cd         1 1LY      -0.069300
      4 NAG          3.4550    -0.0300     1.4090 nc         1 1LY      -0.278600
      5 CAB          3.5780     0.0610     2.7790 cc         1 1LY       0.006600
      6 CAE          2.3090     0.1130     3.4110 cd         1 1LY      -0.236100
      7 NAJ          1.3730     0.0520     2.3860 na         1 1LY       0.051700
      8 CAF         -0.0020     0.0560     2.4020 cd         1 1LY      -0.169300
      9 CAH         -0.7150    -0.0090     1.2050 cc         1 1LY       0.106600
     10 NAA         -2.1110     0.0970     1.1950 nv         1 1LY      -0.803200
     11 H1          -0.5610    -0.1500    -0.9840 ha         1 1LY       0.143000
     12 H2           1.9450    -0.1770    -1.0050 ha         1 1LY       0.164000
     13 H3           4.5540     0.0860     3.2640 h4         1 1LY       0.179000
     14 H4           2.0330     0.1870     4.4590 h4         1 1LY       0.181000
     15 H5          -0.4800     0.1290     3.3910 h4         1 1LY       0.163000
     16 H6          -2.5370    -0.3330     0.4030 hn         1 1LY       0.389300
     17 H7          -2.5440    -0.1640     2.0540 hn         1 1LY       0.389300
@<TRIPOS>BOND
     1     1     2 2   
     2     1     9 1   
     3     1    11 1   
     4     2     3 1   
     5     2    12 1   
     6     3     4 2   
     7     3     7 1   
     8     4     5 1   
     9     5     6 2   
    10     5    13 1   
    11     6     7 1   
    12     6    14 1   
    13     7     8 1   
    14     8     9 2   
    15     8    15 1   
    16     9    10 1   
    17    10    16 1   
    18    10    17 1   
@<TRIPOS>SUBSTRUCTURE
     1 1LY         1 TEMP              0 ****  ****    0 ROOT
