@<TRIPOS>MOLECULE
molecule
   17    18     1     0     0
SMALL
bcc


@<TRIPOS>ATOM
      1 CAC          0.0000     0.0000     0.0000 cc         1 1LY      -0.142000
      2 CAD          1.3590     0.0000     0.0000 cd         1 1LY      -0.082000
      3 CAI          2.0520     0.0000     1.2270 cd         1 1LY      -0.033300
      4 NAG          3.3470    -0.0010     1.5200 nc         1 1LY      -0.316600
      5 CAB          3.4950     0.0000     2.8460 cc         1 1LY       0.035600
      6 CAE          2.2700     0.0020     3.4170 cd         1 1LY      -0.257100
      7 NAJ          1.3510     0.0020     2.4030 na         1 1LY       0.053700
      8 CAF         -0.0160     0.0030     2.3960 cd         1 1LY      -0.106300
      9 CAH         -0.6980     0.0020     1.2240 cc         1 1LY       0.135600
     10 NAA         -2.0990     0.0080     1.2310 nv         1 1LY      -0.981200
     11 H1          -0.5440    -0.0010    -0.9370 ha         1 1LY       0.147000
     12 H2           1.9050    -0.0020    -0.9360 ha         1 1LY       0.160000
     13 H3           4.4400    -0.0000     3.3760 h4         1 1LY       0.181000
     14 H4           2.0550     0.0020     4.4790 h4         1 1LY       0.177000
     15 H5          -0.5590     0.0050     3.3340 h4         1 1LY       0.164000
     16 H6          -2.6030    -0.8560     1.2370 hn         1 1LY       0.431800
     17 H7          -2.5960     0.8770     1.2340 hn         1 1LY       0.431800
@<TRIPOS>BOND
     1     5     4 1   
     2     5     6 2   
     3     4     3 2   
     4     6     7 1   
     5     3     7 1   
     6     3     2 1   
     7     7     8 1   
     8     2     1 2   
     9     8     9 2   
    10     1     9 1   
    11     9    10 1   
    12     1    11 1   
    13     2    12 1   
    14     5    13 1   
    15     6    14 1   
    16     8    15 1   
    17    10    16 1   
    18    10    17 1   
@<TRIPOS>SUBSTRUCTURE
     1 1LY         1 TEMP              0 ****  ****    0 ROOT
