@<TRIPOS>MOLECULE
1LZ
   19    20     1     0     0
SMALL
bcc


@<TRIPOS>ATOM
      1 C01         -0.0040     0.1900    -0.0370 cc         1 1LZ      -0.292800
      2 C02          1.3580    -0.0980    -0.0220 cd         1 1LZ      -0.103100
      3 N03          1.8010    -0.3130     1.2870 na         1 1LZ      -0.185400
      4 C04          0.7150    -0.1650     2.1460 ca         1 1LZ      -0.165500
      5 C05         -0.4590     0.1570     1.3410 ca         1 1LZ       0.399100
      6 N06         -1.6830     0.3640     1.8840 nb         1 1LZ      -0.620000
      7 C07         -1.7620     0.2570     3.2120 ca         1 1LZ       0.375200
      8 C08         -0.6690    -0.0530     4.0750 ca         1 1LZ      -0.196600
      9 C09          0.5940    -0.2690     3.5410 ca         1 1LZ      -0.075000
     10 C10         -0.9400    -0.1320     5.5380 c3         1 1LZ       0.183700
     11 O11          0.2610    -0.4520     6.2270 oh         1 1LZ      -0.601800
     12 H1          -0.6230     0.4010    -0.9040 ha         1 1LZ       0.168000
     13 H2           2.0570    -0.1670    -0.8580 h4         1 1LZ       0.167000
     14 H3           2.7200    -0.5320     1.5600 hn         1 1LZ       0.301700
     15 H4          -2.7640     0.4270     3.6450 h4         1 1LZ       0.017100
     16 H5           1.4500    -0.5090     4.1870 ha         1 1LZ       0.157000
     17 H6          -1.3340     0.8570     5.9060 h1         1 1LZ       0.033700
     18 H7          -1.7130    -0.9260     5.7390 h1         1 1LZ       0.033700
     19 H8           0.0320    -0.4910     7.1620 ho         1 1LZ       0.404000
@<TRIPOS>BOND
     1     1     2 2   
     2     1     5 1   
     3     1    12 1   
     4     2     3 1   
     5     2    13 1   
     6     3     4 1   
     7     3    14 1   
     8     4     5 ar  
     9     4     9 ar  
    10     5     6 ar  
    11     6     7 ar  
    12     7     8 ar  
    13     7    15 1   
    14     8     9 ar  
    15     8    10 1   
    16     9    16 1   
    17    10    11 1   
    18    10    17 1   
    19    10    18 1   
    20    11    19 1   
@<TRIPOS>SUBSTRUCTURE
     1 1LZ         1 TEMP              0 ****  ****    0 ROOT
