@<TRIPOS>MOLECULE
molecule
   19    20     1     0     0
SMALL
bcc


@<TRIPOS>ATOM
      1 C01          0.0000     0.0000     0.0000 cc         1 1LZ      -0.304800
      2 C02          1.3430     0.0000     0.0000 cd         1 1LZ      -0.092100
      3 N03          1.8100     0.0000     1.2840 na         1 1LZ      -0.182400
      4 C04          0.7520    -0.0020     2.1650 ca         1 1LZ      -0.163500
      5 C05         -0.4310     0.0040     1.4000 ca         1 1LZ       0.428100
      6 N06         -1.6190     0.0060     1.9970 nb         1 1LZ      -0.653000
      7 C07         -1.7270     0.0020     3.3080 ca         1 1LZ       0.419200
      8 C08         -0.6050    -0.0040     4.1230 ca         1 1LZ      -0.197600
      9 C09          0.6560    -0.0020     3.5520 ca         1 1LZ      -0.088000
     10 C10         -0.7580    -0.0090     5.6220 c3         1 1LZ       0.194700
     11 O11         -0.8100    -1.3570     6.0920 oh         1 1LZ      -0.603800
     12 H1          -0.6440     0.0000    -0.8710 ha         1 1LZ       0.166000
     13 H2           1.9650    -0.0000    -0.8870 h4         1 1LZ       0.169000
     14 H3           2.7760     0.0000     1.5450 hn         1 1LZ       0.296700
     15 H4          -2.7120     0.0010     3.7600 h4         1 1LZ       0.025100
     16 H5           1.5450    -0.0060     4.1710 ha         1 1LZ       0.134000
     17 H6          -1.6730     0.5030     5.8940 h1         1 1LZ       0.025700
     18 H7           0.0870     0.4980     6.0730 h1         1 1LZ       0.025700
     19 H8          -0.9040    -1.3600     7.0300 ho         1 1LZ       0.402000
@<TRIPOS>BOND
     1    11    10 1
     2    10     8 1
     3     7     8 ar
     4     7     6 ar
     5     8     9 ar
     6     6     5 ar
     7     9     4 ar
     8     5     4 ar
     9     5     1 1
    10     4     3 1
    11     1     2 2
    12     3     2 1
    13     1    12 1
    14     2    13 1
    15     3    14 1
    16     7    15 1
    17     9    16 1
    18    10    17 1
    19    10    18 1
    20    11    19 1
@<TRIPOS>SUBSTRUCTURE
     1 1LZ         1 TEMP              0 ****  ****    0 ROOT
