@<TRIPOS>MOLECULE
1LZ
   19    20     1     0     0
SMALL
bcc


@<TRIPOS>ATOM
      1 C01        -0.0280    0.2090   -0.0010 cc        1 1LZ     -0.292800
      2 C02         1.3250   -0.1160   -0.0040 cd        1 1LZ     -0.103100
      3 N03         1.7760   -0.3590    1.2970 na        1 1LZ     -0.185400
      4 C04         0.7050   -0.1910    2.1700 ca        1 1LZ     -0.165500
      5 C05        -0.4690    0.1720    1.3810 ca        1 1LZ      0.399100
      6 N06        -1.6810    0.4060    1.9400 nb        1 1LZ     -0.620000
      7 C07        -1.7480    0.2860    3.2680 ca        1 1LZ      0.375200
      8 C08        -0.6550   -0.0650    4.1150 ca        1 1LZ     -0.196600
      9 C09         0.5960   -0.3090    3.5640 ca        1 1LZ     -0.075000
     10 C10        -0.9130   -0.1540    5.5800 c3        1 1LZ      0.183700
     11 O11         0.2880   -0.5070    6.2520 oh        1 1LZ     -0.601800
     12 H1         -0.6500    0.4470   -0.8590 ha        1 1LZ      0.168000
     13 H2          2.0140   -0.1950   -0.8490 h4        1 1LZ      0.167000
     14 H3          2.6930   -0.6060    1.5570 hn        1 1LZ      0.301700
     15 H4         -2.7400    0.4790    3.7140 h4        1 1LZ      0.017100
     16 H5          1.4520   -0.5800    4.1980 ha        1 1LZ      0.157000
     17 H6         -1.7000   -0.9330    5.7810 h1        1 1LZ      0.033700
     18 H7         -1.2810    0.8390    5.9630 h1        1 1LZ      0.033700
     19 H8          0.0690   -0.5510    7.1900 ho        1 1LZ      0.404000
@<TRIPOS>BOND
     1    1    2 2   
     2    1    5 1   
     3    1   12 1   
     4    2    3 1   
     5    2   13 1   
     6    3    4 1   
     7    3   14 1   
     8    4    5 ar  
     9    4    9 ar  
    10    5    6 ar  
    11    6    7 ar  
    12    7    8 ar  
    13    7   15 1   
    14    8    9 ar  
    15    8   10 1   
    16    9   16 1   
    17   10   11 1   
    18   10   17 1   
    19   10   18 1   
    20   11   19 1   
@<TRIPOS>SUBSTRUCTURE
     1 1LZ         1 TEMP              0 ****  ****    0 ROOT
