@<TRIPOS>MOLECULE
molecule
   75    81     1     0     0
SMALL
bcc


@<TRIPOS>ATOM
      1 CBK          0.0000     0.0000     0.0000 ca         1 1M0      -0.107000
      2 CBL          1.3820     0.0000     0.0000 ca         1 1M0      -0.129000
      3 CBM          2.0740     0.0000     1.1970 ca         1 1M0      -0.117000
      4 CBN          1.3820     0.0020     2.3940 ca         1 1M0      -0.129000
      5 CBO         -0.0000     0.0020     2.3930 ca         1 1M0      -0.107000
      6 CBI         -0.6910     0.0000     1.1970 ca         1 1M0      -0.121300
      7 CBH         -2.1980     0.0070     1.1960 c3         1 1M0       0.093600
      8 NBC         -2.6920    -1.3720     1.1940 na         1 1M0      -0.146300
      9 CBB         -3.1150    -2.0940     2.2940 ca         1 1M0      -0.085200
     10 CBG         -3.2160    -1.8110     3.6490 ca         1 1M0      -0.130000
     11 CBF         -3.6900    -2.7720     4.5170 ca         1 1M0      -0.114000
     12 CBE         -4.0670    -4.0220     4.0460 ca         1 1M0      -0.148000
     13 CBD         -3.9750    -4.3210     2.7060 ca         1 1M0      -0.070000
     14 CBA         -3.4970    -3.3590     1.8110 ca         1 1M0       0.093400
     15 NAZ         -3.2940    -3.3530     0.4700 nc         1 1M0      -0.595100
     16 CAY         -2.8260    -2.1850     0.1010 cd         1 1M0       0.481400
     17 CAV         -2.4910    -1.8050    -1.2880 ca         1 1M0      -0.134900
     18 CAU         -1.9020    -2.7360    -2.1450 ca         1 1M0      -0.066500
     19 CAT         -1.5910    -2.3780    -3.4390 ca         1 1M0      -0.193500
     20 CAW         -2.7670    -0.5160    -1.7460 ca         1 1M0      -0.066500
     21 CAX         -2.4540    -0.1660    -3.0420 ca         1 1M0      -0.193500
     22 CAS         -1.8620    -1.0930    -3.8900 ca         1 1M0       0.151100
     23 OAR         -1.5540    -0.7430    -5.1660 os         1 1M0      -0.330900
     24 CAQ         -1.8600     0.5940    -5.5650 c3         1 1M0       0.110400
     25 CAJ         -1.4450     0.7990    -7.0220 c3         1 1M0       0.064000
     26 CBJ         -2.2260    -0.1660    -7.9170 c3         1 1M0      -0.070200
     27 CBP         -1.6800    -0.1020    -9.3200 c2         1 1M0      -0.197200
     28 CBQ         -1.2770    -1.1970    -9.9160 c2         1 1M0      -0.207000
     29 NAI         -1.7340     2.1790    -7.4230 na         1 1M0      -0.149300
     30 CAE         -2.6380     2.5800    -8.3860 ca         1 1M0      -0.085200
     31 CAF         -3.5070     1.9060    -9.2320 ca         1 1M0      -0.148000
     32 CAA         -4.3020     2.6190   -10.1050 ca         1 1M0      -0.115000
     33 CAB         -4.2390     4.0060   -10.1420 ca         1 1M0      -0.146000
     34 CAC         -3.3900     4.6860    -9.3180 ca         1 1M0      -0.070000
     35 CAD         -2.5740     3.9850    -8.4240 ca         1 1M0       0.091400
     36 NAG         -1.6550     4.3680    -7.5040 nc         1 1M0      -0.590100
     37 CAH         -1.1620     3.3110    -6.9080 cd         1 1M0       0.471400
     38 CAK         -0.1330     3.3370    -5.8450 ca         1 1M0      -0.108900
     39 CAL          0.0270     4.4740    -5.0520 ca         1 1M0      -0.109000
     40 CAM          0.9890     4.4910    -4.0630 ca         1 1M0      -0.130500
     41 CAN          1.7930     3.3840    -3.8550 ca         1 1M0      -0.116000
     42 CAO          1.6390     2.2530    -4.6380 ca         1 1M0      -0.130500
     43 CAP          0.6770     2.2210    -5.6270 ca         1 1M0      -0.109000
     44 H1          -0.5420    -0.0010    -0.9380 ha         1 1M0       0.135000
     45 H2           1.9240    -0.0010    -0.9380 ha         1 1M0       0.132000
     46 H3           3.1570    -0.0000     1.1970 ha         1 1M0       0.131000
     47 H4           1.9230     0.0030     3.3330 ha         1 1M0       0.132000
     48 H5          -0.5420     0.0030     3.3310 ha         1 1M0       0.135000
     49 H6          -2.5570     0.5210     0.3130 h1         1 1M0       0.069200
     50 H7          -2.5570     0.5180     2.0820 h1         1 1M0       0.069200
     51 H8          -2.9240    -0.8380     4.0230 ha         1 1M0       0.123000
     52 H9          -3.7680    -2.5500     5.5740 ha         1 1M0       0.131000
     53 H10         -4.4380    -4.7680     4.7390 ha         1 1M0       0.133000
     54 H11         -4.2710    -5.2990     2.3450 ha         1 1M0       0.142000
     55 H12         -1.6900    -3.7390    -1.7940 ha         1 1M0       0.149500
     56 H13         -1.1320    -3.0990    -4.1040 ha         1 1M0       0.146000
     57 H14         -3.2280     0.2070    -1.0850 ha         1 1M0       0.149500
     58 H15         -2.6660     0.8350    -3.3970 ha         1 1M0       0.146000
     59 H16         -2.9250     0.7650    -5.4650 h1         1 1M0       0.056700
     60 H17         -1.3220     1.2910    -4.9340 h1         1 1M0       0.056700
     61 H18         -0.3830     0.6080    -7.1260 h1         1 1M0       0.085700
     62 H19         -3.2720     0.1140    -7.9230 hc         1 1M0       0.074700
     63 H20         -2.1240    -1.1740    -7.5350 hc         1 1M0       0.074700
     64 H21         -1.6220     0.8490    -9.8360 ha         1 1M0       0.145000
     65 H23         -0.8850    -1.1510   -10.9250 ha         1 1M0       0.115500
     66 H24         -1.3360    -2.1470    -9.4000 ha         1 1M0       0.115500
     67 H26         -3.5610     0.8240    -9.2080 ha         1 1M0       0.151000
     68 H27         -4.9810     2.0940   -10.7650 ha         1 1M0       0.133000
     69 H28         -4.8690     4.5530   -10.8320 ha         1 1M0       0.133000
     70 H29         -3.3490     5.7680    -9.3550 ha         1 1M0       0.142000
     71 H30         -0.6010     5.3410    -5.2140 ha         1 1M0       0.149500
     72 H31          1.1150     5.3730    -3.4470 ha         1 1M0       0.136000
     73 H32          2.5480     3.4040    -3.0790 ha         1 1M0       0.133000
     74 H33          2.2690     1.3890    -4.4690 ha         1 1M0       0.136000
     75 H34          0.5570     1.3350    -6.2390 ha         1 1M0       0.149500
@<TRIPOS>BOND
     1    34    33 ar  
     2    34    35 ar  
     3    33    32 ar  
     4    36    35 1   
     5    36    37 2   
     6    35    30 ar  
     7    43    42 ar  
     8    43    38 ar  
     9    42    41 ar  
    10    37    38 1   
    11    37    29 1   
    12     2     1 ar  
    13     2     3 ar  
    14    38    39 ar  
    15    32    31 ar  
    16    30    31 ar  
    17    30    29 1   
    18    41    40 ar  
    19     1     6 ar  
    20    39    40 ar  
    21     3     4 ar  
    22    29    25 1   
    23     6     7 1   
    24     6     5 ar  
    25     4     5 ar  
    26    25    26 1   
    27    25    24 1   
    28    26    27 1   
    29     7     8 1   
    30    27    28 2   
    31    24    23 1   
    32    23    22 1   
    33     8     9 1   
    34     8    16 1   
    35    22    19 ar  
    36    22    21 ar  
    37    19    18 ar  
    38    10     9 ar  
    39    10    11 ar  
    40    21    20 ar  
    41    18    17 ar  
    42     9    14 ar  
    43    20    17 ar  
    44    17    16 1   
    45    11    12 ar  
    46    16    15 2   
    47    14    15 1   
    48    14    13 ar  
    49    12    13 ar  
    50     1    44 1   
    51     2    45 1   
    52     3    46 1   
    53     4    47 1   
    54     5    48 1   
    55     7    49 1   
    56     7    50 1   
    57    10    51 1   
    58    11    52 1   
    59    12    53 1   
    60    13    54 1   
    61    18    55 1   
    62    19    56 1   
    63    20    57 1   
    64    21    58 1   
    65    24    59 1   
    66    24    60 1   
    67    25    61 1   
    68    26    62 1   
    69    26    63 1   
    70    27    64 1   
    71    28    65 1   
    72    28    66 1   
    73    31    67 1   
    74    32    68 1   
    75    33    69 1   
    76    34    70 1   
    77    39    71 1   
    78    40    72 1   
    79    41    73 1   
    80    42    74 1   
    81    43    75 1   
@<TRIPOS>SUBSTRUCTURE
     1 1M0         1 TEMP              0 ****  ****    0 ROOT
