@<TRIPOS>MOLECULE
1M0
   75    81     1     0     0
SMALL
bcc


@<TRIPOS>ATOM
      1 CBK        -0.3590    0.8080    1.0310 ca        1 1M0     -0.112500
      2 CBL         0.9840    0.9400    1.3820 ca        1 1M0     -0.130000
      3 CBM         1.4850    0.2740    2.5000 ca        1 1M0     -0.121000
      4 CBN         0.6390   -0.5250    3.2700 ca        1 1M0     -0.130000
      5 CBO        -0.7060   -0.6550    2.9250 ca        1 1M0     -0.112500
      6 CBI        -1.2110    0.0120    1.8040 ca        1 1M0     -0.121300
      7 CBH        -2.6680   -0.0810    1.4450 c3        1 1M0      0.092600
      8 NBC        -3.1950   -1.4030    1.2730 na        1 1M0     -0.160300
      9 CBB        -3.6030   -2.2590    2.3100 ca        1 1M0     -0.073200
     10 CBG        -3.8910   -2.0410    3.6630 ca        1 1M0     -0.139000
     11 CBF        -4.3280   -3.1270    4.4080 ca        1 1M0     -0.114000
     12 CBE        -4.4820   -4.4020    3.8390 ca        1 1M0     -0.154000
     13 CBD        -4.2070   -4.6430    2.5000 ca        1 1M0     -0.069000
     14 CBA        -3.7600   -3.5740    1.7120 ca        1 1M0      0.066400
     15 NAZ        -3.4180   -3.5120    0.3470 nc        1 1M0     -0.555100
     16 CAY        -3.0700   -2.2290    0.1160 cd        1 1M0      0.476400
     17 CAV        -2.6560   -1.7030   -1.1900 ca        1 1M0     -0.144900
     18 CAU        -1.5790   -2.3000   -1.8600 ca        1 1M0     -0.065500
     19 CAT        -1.1850   -1.8330   -3.1070 ca        1 1M0     -0.185500
     20 CAW        -3.3500   -0.6450   -1.7830 ca        1 1M0     -0.065500
     21 CAX        -2.9670   -0.1650   -3.0350 ca        1 1M0     -0.185500
     22 CAS        -1.8840   -0.7590   -3.6930 ca        1 1M0      0.138100
     23 OAR        -1.4090   -0.3750   -4.9320 os        1 1M0     -0.330900
     24 CAQ        -2.1110    0.7030   -5.5610 c3        1 1M0      0.108400
     25 CAJ        -1.3750    0.9200   -6.9090 c3        1 1M0      0.057000
     26 CBJ        -1.7020   -0.2650   -7.8360 c3        1 1M0     -0.062200
     27 CBP        -0.8710   -0.2700   -9.0630 c2        1 1M0     -0.175200
     28 CBQ        -0.0530   -1.2660   -9.3970 c2        1 1M0     -0.214000
     29 NAI        -1.6670    2.2100   -7.4760 na        1 1M0     -0.163300
     30 CAE        -2.9340    2.7140   -7.8130 ca        1 1M0     -0.071200
     31 CAF        -4.2130    2.1440   -7.8530 ca        1 1M0     -0.138000
     32 CAA        -5.2650    2.9510   -8.2610 ca        1 1M0     -0.113000
     33 CAB        -5.0720    4.2950   -8.6260 ca        1 1M0     -0.153000
     34 CAC        -3.8170    4.8840   -8.5930 ca        1 1M0     -0.068000
     35 CAD        -2.7270    4.1040   -8.1820 ca        1 1M0      0.064400
     36 NAG        -1.3640    4.4270   -8.0500 nc        1 1M0     -0.555100
     37 CAH        -0.7580    3.2990   -7.6230 cd        1 1M0      0.473400
     38 CAK         0.6810    3.1890   -7.3510 ca        1 1M0     -0.119900
     39 CAL         1.2900    4.1410   -6.5240 ca        1 1M0     -0.099500
     40 CAM         2.6610    4.0690   -6.2800 ca        1 1M0     -0.135000
     41 CAN         3.4260    3.0590   -6.8620 ca        1 1M0     -0.114000
     42 CAO         2.8200    2.1180   -7.6950 ca        1 1M0     -0.135000
     43 CAP         1.4500    2.1800   -7.9430 ca        1 1M0     -0.099500
     44 H1         -0.7460    1.3320    0.1440 ha        1 1M0      0.138000
     45 H2          1.6490    1.5690    0.7720 ha        1 1M0      0.134500
     46 H3          2.5450    0.3760    2.7730 ha        1 1M0      0.133000
     47 H4          1.0310   -1.0550    4.1500 ha        1 1M0      0.134500
     48 H5         -1.3730   -1.2880    3.5310 ha        1 1M0      0.138000
     49 H6         -3.2640    0.4150    2.2680 h1        1 1M0      0.068700
     50 H7         -2.8520    0.4830    0.4840 h1        1 1M0      0.068700
     51 H8         -3.7780   -1.0470    4.1150 ha        1 1M0      0.135000
     52 H9         -4.5610   -2.9870    5.4750 ha        1 1M0      0.131000
     53 H10        -4.8330   -5.2290    4.4750 ha        1 1M0      0.133000
     54 H11        -4.3360   -5.6410    2.0600 ha        1 1M0      0.148000
     55 H12        -1.0470   -3.1470   -1.3970 ha        1 1M0      0.149000
     56 H13        -0.3410   -2.2880   -3.6450 ha        1 1M0      0.148500
     57 H14        -4.2140   -0.1930   -1.2710 ha        1 1M0      0.149000
     58 H15        -3.5250    0.6650   -3.4890 ha        1 1M0      0.148500
     59 H16        -3.1810    0.4140   -5.7290 h1        1 1M0      0.054200
     60 H17        -2.0540    1.6150   -4.9110 h1        1 1M0      0.054200
     61 H18        -0.2620    0.8910   -6.6910 h1        1 1M0      0.097700
     62 H19        -2.7860   -0.2370   -8.1290 hc        1 1M0      0.066200
     63 H20        -1.5360   -1.2000   -7.2340 hc        1 1M0      0.066200
     64 H21        -0.9910    0.6120   -9.7160 ha        1 1M0      0.131000
     65 H23         0.0850   -2.1590   -8.7740 ha        1 1M0      0.114500
     66 H24         0.5330   -1.2530  -10.3250 ha        1 1M0      0.114500
     67 H26        -4.3800    1.0960   -7.5730 ha        1 1M0      0.134000
     68 H27        -6.2810    2.5280   -8.3030 ha        1 1M0      0.132000
     69 H28        -5.9410    4.8890   -8.9450 ha        1 1M0      0.134000
     70 H29        -3.6700    5.9350   -8.8810 ha        1 1M0      0.149000
     71 H30         0.6890    4.9470   -6.0760 ha        1 1M0      0.148000
     72 H31         3.1390    4.8160   -5.6290 ha        1 1M0      0.137000
     73 H32         4.5080    3.0060   -6.6680 ha        1 1M0      0.135000
     74 H33         3.4230    1.3250   -8.1610 ha        1 1M0      0.137000
     75 H34         0.9760    1.4420   -8.6110 ha        1 1M0      0.148000
@<TRIPOS>BOND
     1    1    2 ar  
     2    1    6 ar  
     3    1   44 1   
     4    2    3 ar  
     5    2   45 1   
     6    3    4 ar  
     7    3   46 1   
     8    4    5 ar  
     9    4   47 1   
    10    5    6 ar  
    11    5   48 1   
    12    6    7 1   
    13    7    8 1   
    14    7   49 1   
    15    7   50 1   
    16    8    9 1   
    17    8   16 1   
    18    9   10 ar  
    19    9   14 ar  
    20   10   11 ar  
    21   10   51 1   
    22   11   12 ar  
    23   11   52 1   
    24   12   13 ar  
    25   12   53 1   
    26   13   14 ar  
    27   13   54 1   
    28   14   15 1   
    29   15   16 2   
    30   16   17 1   
    31   17   18 ar  
    32   17   20 ar  
    33   18   19 ar  
    34   18   55 1   
    35   19   22 ar  
    36   19   56 1   
    37   20   21 ar  
    38   20   57 1   
    39   21   22 ar  
    40   21   58 1   
    41   22   23 1   
    42   23   24 1   
    43   24   25 1   
    44   24   59 1   
    45   24   60 1   
    46   25   26 1   
    47   25   29 1   
    48   25   61 1   
    49   26   27 1   
    50   26   62 1   
    51   26   63 1   
    52   27   28 2   
    53   27   64 1   
    54   28   65 1   
    55   28   66 1   
    56   29   30 1   
    57   29   37 1   
    58   30   31 ar  
    59   30   35 ar  
    60   31   32 ar  
    61   31   67 1   
    62   32   33 ar  
    63   32   68 1   
    64   33   34 ar  
    65   33   69 1   
    66   34   35 ar  
    67   34   70 1   
    68   35   36 1   
    69   36   37 2   
    70   37   38 1   
    71   38   39 ar  
    72   38   43 ar  
    73   39   40 ar  
    74   39   71 1   
    75   40   41 ar  
    76   40   72 1   
    77   41   42 ar  
    78   41   73 1   
    79   42   43 ar  
    80   42   74 1   
    81   43   75 1   
@<TRIPOS>SUBSTRUCTURE
     1 1M0         1 TEMP              0 ****  ****    0 ROOT
