@<TRIPOS>MOLECULE
1M0
   75    81     1     0     0
SMALL
bcc


@<TRIPOS>ATOM
      1 CBK         -0.0150    -0.3420     0.5400 ca         1 1M0      -0.113500
      2 CBL          1.3720    -0.4520     0.4400 ca         1 1M0      -0.131000
      3 CBM          2.1940     0.1750     1.3760 ca         1 1M0      -0.120000
      4 CBN          1.6270     0.9130     2.4140 ca         1 1M0      -0.131000
      5 CBO          0.2420     1.0280     2.5150 ca         1 1M0      -0.113500
      6 CBI         -0.5860     0.4010     1.5780 ca         1 1M0      -0.120300
      7 CBH         -2.0800     0.5540     1.6460 c3         1 1M0       0.091600
      8 NBC         -2.6990     0.1870     2.8860 na         1 1M0      -0.159300
      9 CBB         -2.7530     0.9930     4.0370 ca         1 1M0      -0.073200
     10 CBG         -2.5390     2.3600     4.2480 ca         1 1M0      -0.139000
     11 CBF         -2.7330     2.8490     5.5330 ca         1 1M0      -0.113000
     12 CBE         -3.1320     2.0130     6.5900 ca         1 1M0      -0.153000
     13 CBD         -3.3540     0.6560     6.4050 ca         1 1M0      -0.069000
     14 CBA         -3.1670     0.1220     5.1230 ca         1 1M0       0.066400
     15 NAZ         -3.3250    -1.1910     4.6370 nc         1 1M0      -0.555100
     16 CAY         -3.0270    -1.1320     3.3220 cd         1 1M0       0.475400
     17 CAV         -3.0870    -2.2780     2.4090 ca         1 1M0      -0.142900
     18 CAU         -2.3860    -3.4460     2.7260 ca         1 1M0      -0.067500
     19 CAT         -2.4610    -4.5590     1.8900 ca         1 1M0      -0.183500
     20 CAW         -3.8800    -2.2280     1.2530 ca         1 1M0      -0.067500
     21 CAX         -3.9660    -3.3310     0.4140 ca         1 1M0      -0.183500
     22 CAS         -3.2520    -4.5010     0.7370 ca         1 1M0       0.127100
     23 OAR         -3.3790    -5.5260    -0.1810 os         1 1M0      -0.325900
     24 CAQ         -3.0910    -6.8480     0.2750 c3         1 1M0       0.112400
     25 CAJ         -1.6170    -7.2030    -0.0240 c3         1 1M0       0.034000
     26 CBJ         -1.0670    -8.1350     1.0750 c3         1 1M0      -0.065200
     27 CBP         -1.7880    -9.4190     1.2170 c2         1 1M0      -0.180200
     28 CBQ         -2.4770    -9.7680     2.3020 c2         1 1M0      -0.217000
     29 NAI         -1.4020    -7.6680    -1.3690 na         1 1M0      -0.156300
     30 CAE         -2.0420    -8.7210    -2.0430 ca         1 1M0      -0.063200
     31 CAF         -3.0980    -9.5820    -1.7100 ca         1 1M0      -0.142000
     32 CAA         -3.4920   -10.5190    -2.6530 ca         1 1M0      -0.113000
     33 CAB         -2.8670   -10.6200    -3.9080 ca         1 1M0      -0.155000
     34 CAC         -1.8230    -9.7830    -4.2660 ca         1 1M0      -0.067000
     35 CAD         -1.3940    -8.8200    -3.3410 ca         1 1M0       0.063400
     36 NAG         -0.3840    -7.8460    -3.4380 nc         1 1M0      -0.553100
     37 CAH         -0.4090    -7.1760    -2.2680 cd         1 1M0       0.470400
     38 CAK          0.4750    -6.0470    -1.9490 ca         1 1M0      -0.117900
     39 CAL         -0.0590    -4.7910    -1.6370 ca         1 1M0      -0.099500
     40 CAM          0.7970    -3.7240    -1.3700 ca         1 1M0      -0.136500
     41 CAN          2.1800    -3.9030    -1.4210 ca         1 1M0      -0.117000
     42 CAO          2.7110    -5.1510    -1.7450 ca         1 1M0      -0.136500
     43 CAP          1.8630    -6.2260    -2.0120 ca         1 1M0      -0.099500
     44 H1          -0.6580    -0.8430    -0.1990 ha         1 1M0       0.138000
     45 H2           1.8160    -1.0410    -0.3780 ha         1 1M0       0.134000
     46 H3           3.2870     0.0860     1.2960 ha         1 1M0       0.134000
     47 H4           2.2720     1.4060     3.1560 ha         1 1M0       0.134000
     48 H5          -0.2060     1.6090     3.3380 ha         1 1M0       0.138000
     49 H6          -2.5560    -0.0690     0.8330 h1         1 1M0       0.069700
     50 H7          -2.3300     1.6400     1.4540 h1         1 1M0       0.069700
     51 H8          -2.2340     3.0220     3.4270 ha         1 1M0       0.135000
     52 H9          -2.5720     3.9190     5.7310 ha         1 1M0       0.132000
     53 H10         -3.2720     2.4520     7.5900 ha         1 1M0       0.133000
     54 H11         -3.6730     0.0090     7.2350 ha         1 1M0       0.148000
     55 H12         -1.7760    -3.4890     3.6420 ha         1 1M0       0.149000
     56 H13         -1.8980    -5.4690     2.1430 ha         1 1M0       0.147500
     57 H14         -4.4560    -1.3190     1.0180 ha         1 1M0       0.149000
     58 H15         -4.5860    -3.3090    -0.4930 ha         1 1M0       0.147500
     59 H16         -3.8080    -7.4830    -0.3150 h1         1 1M0       0.077700
     60 H17         -3.3000    -6.9650     1.3690 h1         1 1M0       0.077700
     61 H18         -1.0270    -6.2350     0.0710 h1         1 1M0       0.085700
     62 H19         -1.1000    -7.5560     2.0380 hc         1 1M0       0.060200
     63 H20          0.0150    -8.3540     0.8580 hc         1 1M0       0.060200
     64 H21         -1.6930   -10.1040     0.3550 ha         1 1M0       0.139000
     65 H23         -2.9780   -10.7410     2.3880 ha         1 1M0       0.114500
     66 H24         -2.5840    -9.1130     3.1770 ha         1 1M0       0.114500
     67 H26         -3.5980    -9.5240    -0.7330 ha         1 1M0       0.136000
     68 H27         -4.3200   -11.2050    -2.4130 ha         1 1M0       0.131000
     69 H28         -3.2200   -11.3820    -4.6180 ha         1 1M0       0.133000
     70 H29         -1.3360    -9.8610    -5.2490 ha         1 1M0       0.148000
     71 H30         -1.1510    -4.6470    -1.6110 ha         1 1M0       0.150500
     72 H31          0.3790    -2.7370    -1.1170 ha         1 1M0       0.136000
     73 H32          2.8510    -3.0570    -1.2100 ha         1 1M0       0.132000
     74 H33          3.8010    -5.2910    -1.7940 ha         1 1M0       0.136000
     75 H34          2.2780    -7.2080    -2.2820 ha         1 1M0       0.150500
@<TRIPOS>BOND
     1     1     2 ar  
     2     1     6 ar  
     3     1    44 1   
     4     2     3 ar  
     5     2    45 1   
     6     3     4 ar  
     7     3    46 1   
     8     4     5 ar  
     9     4    47 1   
    10     5     6 ar  
    11     5    48 1   
    12     6     7 1   
    13     7     8 1   
    14     7    49 1   
    15     7    50 1   
    16     8     9 1   
    17     8    16 1   
    18     9    10 ar  
    19     9    14 ar  
    20    10    11 ar  
    21    10    51 1   
    22    11    12 ar  
    23    11    52 1   
    24    12    13 ar  
    25    12    53 1   
    26    13    14 ar  
    27    13    54 1   
    28    14    15 1   
    29    15    16 2   
    30    16    17 1   
    31    17    18 ar  
    32    17    20 ar  
    33    18    19 ar  
    34    18    55 1   
    35    19    22 ar  
    36    19    56 1   
    37    20    21 ar  
    38    20    57 1   
    39    21    22 ar  
    40    21    58 1   
    41    22    23 1   
    42    23    24 1   
    43    24    25 1   
    44    24    59 1   
    45    24    60 1   
    46    25    26 1   
    47    25    29 1   
    48    25    61 1   
    49    26    27 1   
    50    26    62 1   
    51    26    63 1   
    52    27    28 2   
    53    27    64 1   
    54    28    65 1   
    55    28    66 1   
    56    29    30 1   
    57    29    37 1   
    58    30    31 ar  
    59    30    35 ar  
    60    31    32 ar  
    61    31    67 1   
    62    32    33 ar  
    63    32    68 1   
    64    33    34 ar  
    65    33    69 1   
    66    34    35 ar  
    67    34    70 1   
    68    35    36 1   
    69    36    37 2   
    70    37    38 1   
    71    38    39 ar  
    72    38    43 ar  
    73    39    40 ar  
    74    39    71 1   
    75    40    41 ar  
    76    40    72 1   
    77    41    42 ar  
    78    41    73 1   
    79    42    43 ar  
    80    42    74 1   
    81    43    75 1   
@<TRIPOS>SUBSTRUCTURE
     1 1M0         1 TEMP              0 ****  ****    0 ROOT
