@<TRIPOS>MOLECULE
molecule
   37    41     1     0     0
SMALL
bcc


@<TRIPOS>ATOM
      1 CAS          0.0000     0.0000     0.0000 ca         1 1M1      -0.233300
      2 CAT          1.3860     0.0000     0.0000 ca         1 1M1      -0.093000
      3 CAU          2.0470     0.0000     1.2190 ca         1 1M1      -0.245300
      4 CAV          1.3050     0.0000     2.3860 ca         1 1M1       0.426200
      5 NAW         -0.0120    -0.0000     2.3480 nb         1 1M1      -0.661000
      6 CAR         -0.6740     0.0000     1.2070 ca         1 1M1       0.407600
      7 CAQ         -2.1810     0.0070     1.2190 c3         1 1M1       0.289900
      8 NAE         -2.6690    -1.1200     2.0180 na         1 1M1      -0.183300
      9 CAD         -2.8900    -2.4180     1.6770 ca         1 1M1      -0.075200
     10 CAI         -2.7610    -3.1200     0.4820 ca         1 1M1      -0.136000
     11 CAH         -3.0770    -4.4670     0.5070 ca         1 1M1      -0.112000
     12 CAG         -3.5030    -5.1020     1.6610 ca         1 1M1      -0.154000
     13 CAF         -3.6400    -4.4340     2.8530 ca         1 1M1      -0.063000
     14 CAC         -3.3290    -3.0680     2.8590 ca         1 1M1       0.088400
     15 NAB         -3.3630    -2.1470     3.8400 nc         1 1M1      -0.585100
     16 CAA         -2.9880    -0.9930     3.3610 cd         1 1M1       0.486400
     17 CAJ         -2.8910     0.3220     4.0260 ca         1 1M1      -0.123900
     18 CAK         -3.0020     0.4820     5.3980 ca         1 1M1      -0.070000
     19 CAL         -2.8820     1.7440     5.9480 ca         1 1M1      -0.145000
     20 CAM         -2.6590     2.8410     5.1330 ca         1 1M1      -0.108000
     21 CAN         -2.5640     2.6950     3.7620 ca         1 1M1      -0.127000
     22 CAO         -2.6920     1.4390     3.1920 ca         1 1M1       0.128600
     23 NAP         -2.6610     1.2630     1.8120 nu         1 1M1      -0.727600
     24 H1          -0.5480     0.0000    -0.9340 ha         1 1M1       0.136000
     25 H2           1.9410    -0.0000    -0.9310 ha         1 1M1       0.140000
     26 H3           3.1290     0.0000     1.2570 ha         1 1M1       0.140000
     27 H4           1.8130    -0.0000     3.3430 h4         1 1M1       0.028100
     28 H5          -2.5560    -0.0800     0.2060 h2         1 1M1       0.084700
     29 H6          -2.4280    -2.6330    -0.4270 ha         1 1M1       0.128000
     30 H7          -2.9870    -5.0440    -0.4060 ha         1 1M1       0.127000
     31 H8          -3.7360    -6.1590     1.6230 ha         1 1M1       0.129000
     32 H9          -3.9740    -4.9420     3.7500 ha         1 1M1       0.147000
     33 H10         -3.1770    -0.3770     6.0350 ha         1 1M1       0.155000
     34 H11         -2.9540     1.8750     7.0210 ha         1 1M1       0.135000
     35 H12         -2.5660     3.8260     5.5740 ha         1 1M1       0.132000
     36 H13         -2.3890     3.5610     3.1350 ha         1 1M1       0.142000
     37 H14         -3.5550     1.4940     1.4260 hn         1 1M1       0.391800
@<TRIPOS>BOND
     1     3     2 ar  
     2     3     4 ar  
     3     2     1 ar  
     4     1     6 ar  
     5     4     5 ar  
     6     6     5 ar  
     7     6     7 1   
     8     7    23 1   
     9     7     8 1   
    10    23    22 1   
    11    10    11 ar  
    12    10     9 ar  
    13    11    12 ar  
    14     8     9 1   
    15     8    16 1   
    16     9    14 ar  
    17    22    21 ar  
    18    22    17 ar  
    19    21    20 ar  
    20    12    13 ar  
    21    16    17 1   
    22    16    15 2   
    23    17    18 ar  
    24    14    13 ar  
    25    14    15 1   
    26    20    19 ar  
    27    18    19 ar  
    28     1    24 1   
    29     2    25 1   
    30     3    26 1   
    31     4    27 1   
    32     7    28 1   
    33    10    29 1   
    34    11    30 1   
    35    12    31 1   
    36    13    32 1   
    37    18    33 1   
    38    19    34 1   
    39    20    35 1   
    40    21    36 1   
    41    23    37 1   
@<TRIPOS>SUBSTRUCTURE
     1 1M1         1 TEMP              0 ****  ****    0 ROOT
