@<TRIPOS>MOLECULE
1M1
   37    41     1     0     0
SMALL
bcc


@<TRIPOS>ATOM
      1 CAS          0.0000     0.0000     0.0000 ca         1 1M1      -0.192300
      2 CAT          1.3860     0.0000     0.0000 ca         1 1M1      -0.070000
      3 CAU          2.0470     0.0000     1.2190 ca         1 1M1      -0.208300
      4 CAV          1.3050     0.0000     2.3860 ca         1 1M1       0.405200
      5 NAW         -0.0120    -0.0000     2.3480 nb         1 1M1      -0.543000
      6 CAR         -0.6740     0.0000     1.2070 ca         1 1M1       0.338600
      7 CAQ         -2.1810     0.0070     1.2190 c3         1 1M1       0.092900
      8 NAE         -2.6690    -1.1200     2.0180 na         1 1M1       0.263700
      9 CAD         -2.8900    -2.4180     1.6770 ca         1 1M1      -0.233200
     10 CAI         -2.7610    -3.1200     0.4820 ca         1 1M1      -0.103000
     11 CAH         -3.0770    -4.4670     0.5070 ca         1 1M1      -0.084000
     12 CAG         -3.5030    -5.1020     1.6610 ca         1 1M1      -0.130000
     13 CAF         -3.6400    -4.4340     2.8530 ca         1 1M1      -0.030000
     14 CAC         -3.3290    -3.0680     2.8590 ca         1 1M1       0.052400
     15 NAB         -3.3630    -2.1470     3.8400 nc         1 1M1      -0.493100
     16 CAA         -2.9880    -0.9930     3.3610 cd         1 1M1       0.297400
     17 CAJ         -2.8910     0.3220     4.0260 ca         1 1M1      -0.117900
     18 CAK         -3.0020     0.4820     5.3980 ca         1 1M1      -0.044000
     19 CAL         -2.8820     1.7440     5.9480 ca         1 1M1      -0.114000
     20 CAM         -2.6590     2.8410     5.1330 ca         1 1M1      -0.085000
     21 CAN         -2.5640     2.6950     3.7620 ca         1 1M1      -0.097000
     22 CAO         -2.6920     1.4390     3.1920 ca         1 1M1       0.014600
     23 NAP         -2.6610     1.2630     1.8120 nu         1 1M1      -0.412600
     24 H1          -0.5480     0.0000    -0.9340 ha         1 1M1       0.113000
     25 H2           1.9410    -0.0000    -0.9310 ha         1 1M1       0.111000
     26 H3           3.1290     0.0000     1.2570 ha         1 1M1       0.115000
     27 H4           1.8130    -0.0000     3.3430 h4         1 1M1      -0.015900
     28 H5          -2.5560    -0.0800     0.2060 h2         1 1M1       0.048700
     29 H6          -2.4280    -2.6330    -0.4270 ha         1 1M1       0.104000
     30 H7          -2.9870    -5.0440    -0.4060 ha         1 1M1       0.098000
     31 H8          -3.7360    -6.1590     1.6230 ha         1 1M1       0.101000
     32 H9          -3.9740    -4.9420     3.7500 ha         1 1M1       0.114000
     33 H10         -3.1770    -0.3770     6.0350 ha         1 1M1       0.123000
     34 H11         -2.9540     1.8750     7.0210 ha         1 1M1       0.105000
     35 H12         -2.5660     3.8260     5.5740 ha         1 1M1       0.101000
     36 H13         -2.3890     3.5610     3.1350 ha         1 1M1       0.112000
     37 H14         -3.5550     1.4940     1.4260 hn         1 1M1       0.263800
@<TRIPOS>BOND
     1     1     2 ar  
     2     1     6 ar  
     3     1    24 1   
     4     2     3 ar  
     5     2    25 1   
     6     3     4 ar  
     7     3    26 1   
     8     4     5 ar  
     9     4    27 1   
    10     5     6 ar  
    11     6     7 1   
    12     7     8 1   
    13     7    23 1   
    14     7    28 1   
    15     8     9 1   
    16     8    16 1   
    17     9    10 ar  
    18     9    14 ar  
    19    10    11 ar  
    20    10    29 1   
    21    11    12 ar  
    22    11    30 1   
    23    12    13 ar  
    24    12    31 1   
    25    13    14 ar  
    26    13    32 1   
    27    14    15 1   
    28    15    16 2   
    29    16    17 1   
    30    17    18 ar  
    31    17    22 ar  
    32    18    19 ar  
    33    18    33 1   
    34    19    20 ar  
    35    19    34 1   
    36    20    21 ar  
    37    20    35 1   
    38    21    22 ar  
    39    21    36 1   
    40    22    23 1   
    41    23    37 1   
@<TRIPOS>SUBSTRUCTURE
     1 1M1         1 TEMP              0 ****  ****    0 ROOT
