@<TRIPOS>MOLECULE
1M1
   37    41     1     0     0
SMALL
bcc


@<TRIPOS>ATOM
      1 CAS          0.0130     0.6040     0.0500 ca         1 1M1      -0.225300
      2 CAT          1.4010     0.7530    -0.0080 ca         1 1M1      -0.093000
      3 CAU          2.1820     0.2140     1.0130 ca         1 1M1      -0.232300
      4 CAV          1.5320    -0.4560     2.0690 ca         1 1M1       0.398200
      5 NAW          0.1990    -0.6090     2.1450 nb         1 1M1      -0.643000
      6 CAR         -0.5450    -0.0870     1.1420 ca         1 1M1       0.329600
      7 CAQ         -2.0800    -0.2620     1.1980 c3         1 1M1       0.293900
      8 NAE         -2.4630    -1.6110     0.8410 na         1 1M1      -0.181300
      9 CAD         -2.3530    -2.2740    -0.3840 ca         1 1M1      -0.051200
     10 CAI         -1.8950    -1.8860    -1.6480 ca         1 1M1      -0.137000
     11 CAH         -1.9470    -2.8300    -2.6650 ca         1 1M1      -0.115000
     12 CAG         -2.4370    -4.1280    -2.4460 ca         1 1M1      -0.153000
     13 CAF         -2.8960    -4.5360    -1.2010 ca         1 1M1      -0.071000
     14 CAC         -2.8650    -3.6160    -0.1440 ca         1 1M1       0.075400
     15 NAB         -3.2690    -3.7440     1.2000 nc         1 1M1      -0.564100
     16 CAA         -3.0170    -2.5450     1.7650 cd         1 1M1       0.502400
     17 CAJ         -3.2540    -2.1070     3.1360 ca         1 1M1      -0.154900
     18 CAK         -3.7140    -2.9940     4.1120 ca         1 1M1      -0.053000
     19 CAL         -3.9160    -2.5540     5.4180 ca         1 1M1      -0.170000
     20 CAM         -3.6520    -1.2250     5.7520 ca         1 1M1      -0.083000
     21 CAN         -3.1940    -0.3280     4.7950 ca         1 1M1      -0.181000
     22 CAO         -2.9960    -0.7470     3.4600 ca         1 1M1       0.157600
     23 NAP         -2.6490     0.1970     2.4730 nu         1 1M1      -0.709600
     24 H1          -0.6290     1.0150    -0.7420 ha         1 1M1       0.146000
     25 H2           1.8680     1.2850    -0.8500 ha         1 1M1       0.143000
     26 H3           3.2760     0.3040     1.0030 ha         1 1M1       0.148000
     27 H4           2.1100    -0.8980     2.9010 h4         1 1M1       0.029100
     28 H5          -2.5180     0.4350     0.4080 h2         1 1M1       0.080700
     29 H6          -1.5060    -0.8750    -1.8250 ha         1 1M1       0.130000
     30 H7          -1.5950    -2.5550    -3.6710 ha         1 1M1       0.130000
     31 H8          -2.4550    -4.8370    -3.2860 ha         1 1M1       0.132000
     32 H9          -3.2790    -5.5530    -1.0390 ha         1 1M1       0.148000
     33 H10         -3.9130    -4.0440     3.8430 ha         1 1M1       0.158000
     34 H11         -4.2790    -3.2540     6.1830 ha         1 1M1       0.137000
     35 H12         -3.8060    -0.8800     6.7860 ha         1 1M1       0.133000
     36 H13         -2.9910     0.7150     5.0830 ha         1 1M1       0.135000
     37 H14         -2.1160     0.9620     2.8420 hn         1 1M1       0.411800
@<TRIPOS>BOND
     1     1     2 ar  
     2     1     6 ar  
     3     1    24 1   
     4     2     3 ar  
     5     2    25 1   
     6     3     4 ar  
     7     3    26 1   
     8     4     5 ar  
     9     4    27 1   
    10     5     6 ar  
    11     6     7 1   
    12     7     8 1   
    13     7    23 1   
    14     7    28 1   
    15     8     9 1   
    16     8    16 1   
    17     9    10 ar  
    18     9    14 ar  
    19    10    11 ar  
    20    10    29 1   
    21    11    12 ar  
    22    11    30 1   
    23    12    13 ar  
    24    12    31 1   
    25    13    14 ar  
    26    13    32 1   
    27    14    15 1   
    28    15    16 2   
    29    16    17 1   
    30    17    18 ar  
    31    17    22 ar  
    32    18    19 ar  
    33    18    33 1   
    34    19    20 ar  
    35    19    34 1   
    36    20    21 ar  
    37    20    35 1   
    38    21    22 ar  
    39    21    36 1   
    40    22    23 1   
    41    23    37 1   
@<TRIPOS>SUBSTRUCTURE
     1 1M1         1 TEMP              0 ****  ****    0 ROOT
