@<TRIPOS>MOLECULE
1M2
   20    21     1     0     0
SMALL
bcc


@<TRIPOS>ATOM
      1 C01          0.0000     0.0000     0.0000 c3         1 1M2       0.197100
      2 N02          1.4650     0.0000     0.0000 nu         1 1M2      -0.472200
      3 C03          2.1550     0.0000     1.1950 cc         1 1M2       0.339700
      4 N04          1.5780    -0.0010     2.4330 na         1 1M2       0.215700
      5 C05          2.6050    -0.0010     3.3630 ca         1 1M2      -0.281200
      6 C06          2.6460    -0.0020     4.7490 ca         1 1M2      -0.080000
      7 C07          3.8630    -0.0010     5.4000 ca         1 1M2      -0.110000
      8 C08          5.0460     0.0000     4.6760 ca         1 1M2      -0.110000
      9 C09          5.0240     0.0010     3.3000 ca         1 1M2      -0.060000
     10 C10          3.8000     0.0000     2.6260 ca         1 1M2       0.107400
     11 N11          3.4590    -0.0050     1.3100 nd         1 1M2      -0.604100
     12 H1          -0.3610    -0.8700     0.5350 h1         1 1M2       0.002700
     13 H2          -0.3610    -0.0280    -1.0210 h1         1 1M2       0.002700
     14 H3          -0.3610     0.8980     0.4860 h1         1 1M2       0.002700
     15 H4           1.9650    -0.0000    -0.8670 hn         1 1M2       0.311800
     16 H5           0.6060     0.1340     2.6300 hn         1 1M2       0.127700
     17 H6           1.7260    -0.0030     5.3200 ha         1 1M2       0.096000
     18 H7           3.8940    -0.0020     6.4820 ha         1 1M2       0.101000
     19 H8           5.9960     0.0010     5.1980 ha         1 1M2       0.101000
     20 H9           5.9520     0.0020     2.7410 ha         1 1M2       0.109000
@<TRIPOS>BOND
     1     1     2 1   
     2     1    12 1   
     3     1    13 1   
     4     1    14 1   
     5     2     3 1   
     6     2    15 1   
     7     3     4 1   
     8     3    11 2   
     9     4     5 1   
    10     4    16 1   
    11     5     6 ar  
    12     5    10 ar  
    13     6     7 ar  
    14     6    17 1   
    15     7     8 ar  
    16     7    18 1   
    17     8     9 ar  
    18     8    19 1   
    19     9    10 ar  
    20     9    20 1   
    21    10    11 1   
@<TRIPOS>SUBSTRUCTURE
     1 1M2         1 TEMP              0 ****  ****    0 ROOT
