@<TRIPOS>MOLECULE
1M2
   20    21     1     0     0
SMALL
bcc


@<TRIPOS>ATOM
      1 C01          0.1080     0.2510     0.0240 c3         1 1M2       0.158100
      2 N02          1.4180    -0.3480     0.0690 nu         1 1M2      -0.762200
      3 C03          2.1580    -0.1530     1.2620 cc         1 1M2       0.579700
      4 N04          1.5750    -0.3820     2.5510 na         1 1M2      -0.285300
      5 C05          2.6250    -0.2520     3.4710 ca         1 1M2      -0.081200
      6 C06          2.6720    -0.3840     4.8610 ca         1 1M2      -0.130000
      7 C07          3.8880    -0.1330     5.4860 ca         1 1M2      -0.122000
      8 C08          5.0270     0.2450     4.7580 ca         1 1M2      -0.147000
      9 C09          5.0010     0.3860     3.3770 ca         1 1M2      -0.081000
     10 C10          3.7960     0.1370     2.7070 ca         1 1M2       0.087400
     11 N11          3.4730     0.2030     1.3380 nd         1 1M2      -0.605100
     12 H1          -0.3230     0.0580    -0.9940 h1         1 1M2       0.043033
     13 H2           0.1140     1.3590     0.2090 h1         1 1M2       0.043033
     14 H3          -0.5550    -0.2330     0.7880 h1         1 1M2       0.043033
     15 H4           1.9740    -0.1100    -0.7340 hn         1 1M2       0.414800
     16 H5           0.7420    -0.8830     2.7100 hn         1 1M2       0.301700
     17 H6           1.7850    -0.6750     5.4380 ha         1 1M2       0.134000
     18 H7           3.9600    -0.2330     6.5790 ha         1 1M2       0.131000
     19 H8           5.9650     0.4350     5.3010 ha         1 1M2       0.132000
     20 H9           5.8970     0.6860     2.8160 ha         1 1M2       0.147000
@<TRIPOS>BOND
     1     1     2 1   
     2     1    12 1   
     3     1    13 1   
     4     1    14 1   
     5     2     3 1   
     6     2    15 1   
     7     3     4 1   
     8     3    11 2   
     9     4     5 1   
    10     4    16 1   
    11     5     6 ar  
    12     5    10 ar  
    13     6     7 ar  
    14     6    17 1   
    15     7     8 ar  
    16     7    18 1   
    17     8     9 ar  
    18     8    19 1   
    19     9    10 ar  
    20     9    20 1   
    21    10    11 1   
@<TRIPOS>SUBSTRUCTURE
     1 1M2         1 TEMP              0 ****  ****    0 ROOT
