@<TRIPOS>MOLECULE
molecule
   71    74     1     0     0
SMALL
bcc


@<TRIPOS>ATOM
      1 O2           0.0000     0.0000     0.0000 o          1 1M3      -0.640300
      2 S1           1.4210     0.0000     0.0000 sy         1 1M3       1.429200
      3 O1           2.1970     0.0000     1.1900 o          1 1M3      -0.640300
      4 N7           1.8880    -1.3330    -0.8640 n7         1 1M3      -0.907100
      5 C23          3.3120    -1.6330    -1.0340 c3         1 1M3       0.245200
      6 C26          4.0260    -0.4060    -1.6060 c3         1 1M3      -0.108100
      7 C25          3.9240    -1.9920     0.3210 c3         1 1M3      -0.108100
      8 C24          3.4740    -2.8110    -1.9960 c3         1 1M3      -0.108100
      9 C21          1.9190     1.4180    -0.9190 ca         1 1M3      -0.296500
     10 C20          1.1530     1.8550    -1.9850 ca         1 1M3      -0.046000
     11 C19          1.5400     2.9660    -2.7090 ca         1 1M3      -0.140000
     12 C18          2.6940     3.6460    -2.3700 ca         1 1M3      -0.071000
     13 C22          3.0690     2.0970    -0.5700 ca         1 1M3      -0.064000
     14 C17          3.4650     3.2120    -1.3000 ca         1 1M3       0.131600
     15 N1           4.6300     3.9010    -0.9500 nu         1 1M3      -0.770300
     16 C1           5.4670     4.3930    -1.9390 ca         1 1M3       0.760200
     17 N3           5.2310     4.1240    -3.2180 nb         1 1M3      -0.857000
     18 C4           6.0300     4.5920    -4.1660 ca         1 1M3       0.967900
     19 N2           7.0840     5.3410    -3.8770 nb         1 1M3      -0.816000
     20 C3           7.3790     5.6490    -2.6230 ca         1 1M3       0.524200
     21 C2           6.5680     5.1840    -1.6050 ca         1 1M3      -0.444900
     22 C5           6.8690     5.5200    -0.1670 c3         1 1M3      -0.028800
     23 N4           5.7560     4.2920    -5.4900 nu         1 1M3      -0.752300
     24 C6           6.6450     4.6890    -6.4960 ca         1 1M3       0.134600
     25 C11          8.0100     4.7340    -6.2400 ca         1 1M3      -0.121500
     26 C10          8.8860     5.1260    -7.2310 ca         1 1M3      -0.150000
     27 C9           8.4040     5.4760    -8.4860 ca         1 1M3       0.085600
     28 C8           7.0400     5.4310    -8.7430 ca         1 1M3      -0.150000
     29 C7           6.1640     5.0340    -7.7520 ca         1 1M3      -0.121500
     30 N5           9.2920     5.8730    -9.4910 nh         1 1M3      -0.589000
     31 C15         10.3130     4.8430    -9.7300 c3         1 1M3       0.120800
     32 C14         11.3090     5.3480   -10.7770 c3         1 1M3       0.160800
     33 N6          10.5890     5.6720   -12.0170 n3         1 1M3      -0.722600
     34 C16          9.9920     4.4670   -12.6090 c3         1 1M3       0.141100
     35 C13          9.5700     6.7030   -11.7770 c3         1 1M3       0.160800
     36 C12          8.5740     6.1970   -10.7310 c3         1 1M3       0.120800
     37 H1           1.1980    -1.9480    -1.2460 hn         1 1M3       0.454800
     38 H2           3.3770     0.0910    -2.3160 hc         1 1M3       0.047700
     39 H3           4.9350    -0.7180    -2.1060 hc         1 1M3       0.047700
     40 H4           4.2720     0.2760    -0.8020 hc         1 1M3       0.047700
     41 H5           4.8240    -2.5740     0.1680 hc         1 1M3       0.047700
     42 H6           3.2120    -2.5730     0.8960 hc         1 1M3       0.047700
     43 H7           4.1680    -1.0850     0.8590 hc         1 1M3       0.047700
     44 H8           3.0460    -2.5550    -2.9580 hc         1 1M3       0.047700
     45 H9           4.5270    -3.0360    -2.1190 hc         1 1M3       0.047700
     46 H10          2.9650    -3.6790    -1.5940 hc         1 1M3       0.047700
     47 H11          0.2480     1.3230    -2.2540 ha         1 1M3       0.146000
     48 H12          0.9380     3.3050    -3.5440 ha         1 1M3       0.138000
     49 H13          2.9980     4.5160    -2.9400 ha         1 1M3       0.156000
     50 H14          3.6680     1.7550     0.2650 ha         1 1M3       0.155000
     51 H15          4.8410     4.0690     0.0140 hn         1 1M3       0.465800
     52 H16          8.2430     6.2630    -2.3980 h4         1 1M3       0.032100
     53 H17          7.7460     6.1550    -0.1200 hc         1 1M3       0.040367
     54 H18          7.0540     4.6080     0.3870 hc         1 1M3       0.040367
     55 H19          6.0230     6.0400     0.2670 hc         1 1M3       0.040367
     56 H20          4.9430     3.7570    -5.7240 hn         1 1M3       0.463800
     57 H21          8.3860     4.4620    -5.2610 ha         1 1M3       0.145000
     58 H22          9.9500     5.1610    -7.0310 ha         1 1M3       0.138000
     59 H23          6.6640     5.7020    -9.7220 ha         1 1M3       0.138000
     60 H24          5.1000     4.9990    -7.9520 ha         1 1M3       0.145000
     61 H25         10.8380     4.6350    -8.8050 h1         1 1M3       0.046200
     62 H26          9.8360     3.9410   -10.0930 h1         1 1M3       0.046200
     63 H27         12.0430     4.5770   -10.9780 h1         1 1M3       0.063700
     64 H28         11.8030     6.2380   -10.4050 h1         1 1M3       0.063700
     65 H30          9.3040     4.0200   -11.9020 h1         1 1M3       0.034033
     66 H31         10.7740     3.7570   -12.8500 h1         1 1M3       0.034033
     67 H32          9.4580     4.7360   -13.5130 h1         1 1M3       0.034033
     68 H33          9.0450     6.9120   -12.7020 h1         1 1M3       0.063700
     69 H34         10.0470     7.6040   -11.4140 h1         1 1M3       0.063700
     70 H35          7.8400     6.9680   -10.5310 h1         1 1M3       0.046200
     71 H36          8.0800     5.3080   -11.1040 h1         1 1M3       0.046200
@<TRIPOS>BOND
     1     6     5 1
     2     1     2 2
     3     8     5 1
     4     4     5 1
     5     4     2 1
     6     5     7 1
     7     2     3 2
     8     2     9 1
     9    22    21 1
    10    13     9 ar
    11    13    14 ar
    12     9    10 ar
    13    15    14 1
    14    15    16 1
    15    21    16 ar
    16    21    20 ar
    17    14    12 ar
    18    16    17 ar
    19    10    11 ar
    20    20    19 ar
    21    12    11 ar
    22    17    18 ar
    23    19    18 ar
    24    18    23 1
    25    23    24 1
    26    25    24 ar
    27    25    26 ar
    28    24    29 ar
    29    26    27 ar
    30    29    28 ar
    31    27    28 ar
    32    27    30 1
    33    31    30 1
    34    31    32 1
    35    30    36 1
    36    32    33 1
    37    36    35 1
    38    33    35 1
    39    33    34 1
    40     4    37 1
    41     6    38 1
    42     6    39 1
    43     6    40 1
    44     7    41 1
    45     7    42 1
    46     7    43 1
    47     8    44 1
    48     8    45 1
    49     8    46 1
    50    10    47 1
    51    11    48 1
    52    12    49 1
    53    13    50 1
    54    15    51 1
    55    20    52 1
    56    22    53 1
    57    22    54 1
    58    22    55 1
    59    23    56 1
    60    25    57 1
    61    26    58 1
    62    28    59 1
    63    29    60 1
    64    31    61 1
    65    31    62 1
    66    32    63 1
    67    32    64 1
    68    34    65 1
    69    34    66 1
    70    34    67 1
    71    35    68 1
    72    35    69 1
    73    36    70 1
    74    36    71 1
@<TRIPOS>SUBSTRUCTURE
     1 1M3         1 TEMP              0 ****  ****    0 ROOT
