@<TRIPOS>MOLECULE
1M3
   72    75     1     0     0
SMALL
bcc


@<TRIPOS>ATOM
      1 O2           0.7470     0.0650    -0.5400 o          1 1M3      -0.576800
      2 S1           2.0280     0.5450    -0.3360 sy         1 1M3       1.486200
      3 O1           2.6150     0.5140     0.9130 o          1 1M3      -0.576800
      4 N7           3.0420    -0.7120    -1.3480 ny         1 1M3      -0.705900
      5 C23          3.4740    -1.9900    -0.6510 c3         1 1M3       0.158200
      6 C26          2.3050    -2.5740     0.1470 c3         1 1M3      -0.131767
      7 C25          4.6490    -1.7100     0.2900 c3         1 1M3      -0.131767
      8 C24          3.9190    -3.0170    -1.7000 c3         1 1M3      -0.131767
      9 C21          2.4150     1.8270    -1.2260 ca         1 1M3      -0.511500
     10 C20          3.5400     2.6120    -0.9140 ca         1 1M3      -0.023000
     11 C19          3.8280     3.7550    -1.6490 ca         1 1M3      -0.132000
     12 C18          3.0120     4.1510    -2.7050 ca         1 1M3       0.000000
     13 C22          1.5790     2.2400    -2.2830 ca         1 1M3      -0.083000
     14 C17          1.8540     3.3960    -3.0370 ca         1 1M3       0.162600
     15 N1           1.0600     3.7170    -4.1440 nu         1 1M3      -0.726300
     16 C1           0.6270     5.0360    -4.4400 ca         1 1M3       0.678200
     17 N3           0.9660     6.0630    -3.6070 nb         1 1M3      -0.805000
     18 C4           0.5350     7.3270    -3.9720 ca         1 1M3       0.913900
     19 N2          -0.1950     7.6100    -5.1330 nb         1 1M3      -0.742000
     20 C3          -0.5090     6.5690    -5.9010 ca         1 1M3       0.495200
     21 C2          -0.1420     5.2320    -5.6250 ca         1 1M3      -0.388900
     22 C5          -0.5340     4.1360    -6.5280 c3         1 1M3      -0.034800
     23 N4           0.7810     8.4100    -3.1260 nu         1 1M3      -0.712300
     24 C6           1.6740     8.3680    -2.0310 ca         1 1M3       0.097600
     25 C11          1.4860     7.4760    -0.9580 ca         1 1M3      -0.112500
     26 C10          2.3170     7.5210     0.1520 ca         1 1M3      -0.160500
     27 C9           3.3680     8.4650     0.2480 ca         1 1M3       0.130600
     28 C8           3.5580     9.3430    -0.8410 ca         1 1M3      -0.160500
     29 C7           2.7300     9.2990    -1.9540 ca         1 1M3      -0.112500
     30 N5           4.1090     8.5430     1.4550 nh         1 1M3      -0.625000
     31 C15          4.8080     7.3330     1.8560 c3         1 1M3       0.179300
     32 C14          6.2600     7.2250     1.3410 c3         1 1M3       0.137800
     33 N6           7.0410     8.4230     1.5990 n3         1 1M3      -0.729600
     34 C16          8.3910     8.3290     1.0910 c3         1 1M3       0.157100
     35 C13          6.3690     9.6450     1.1810 c3         1 1M3       0.137800
     36 C12          4.9150     9.7280     1.6880 c3         1 1M3       0.179300
     37 H1           3.8820    -0.2720    -1.7160 hn         1 1M3       0.441300
     38 H2           2.6190    -3.5660     0.5550 hc         1 1M3       0.075033
     39 H3           1.4040    -2.7290    -0.4940 hc         1 1M3       0.075033
     40 H4           2.0360    -1.9160     1.0110 hc         1 1M3       0.075033
     41 H5           4.9470    -2.6740     0.7730 hc         1 1M3       0.075033
     42 H6           5.5300    -1.3140    -0.2690 hc         1 1M3       0.075033
     43 H7           4.3660    -0.9920     1.1000 hc         1 1M3       0.075033
     44 H8           4.7680    -2.6290    -2.3130 hc         1 1M3       0.075033
     45 H9           3.0740    -3.3000    -2.3730 hc         1 1M3       0.075033
     46 H10          4.2660    -3.9400    -1.1710 hc         1 1M3       0.075033
     47 H11          4.1870     2.3270    -0.0650 ha         1 1M3       0.162000
     48 H12          4.7130     4.3630    -1.3930 ha         1 1M3       0.171000
     49 H13          3.2750     5.0580    -3.2790 ha         1 1M3       0.191000
     50 H14          0.6740     1.6410    -2.4990 ha         1 1M3       0.160000
     51 H15          0.3810     3.0260    -4.3960 hn         1 1M3       0.437800
     52 H16         -1.0930     6.8070    -6.8130 h4         1 1M3       0.043100
     53 H17         -1.0900     4.5320    -7.4150 hc         1 1M3       0.047033
     54 H18         -1.2030     3.4070    -6.0030 hc         1 1M3       0.047033
     55 H19          0.3650     3.5840    -6.9020 hc         1 1M3       0.047033
     56 H20          0.6190     9.3170    -3.5150 hn         1 1M3       0.461800
     57 H21          0.6630     6.7450    -0.9800 ha         1 1M3       0.142500
     58 H22          2.1230     6.8280     0.9860 ha         1 1M3       0.141000
     59 H23          4.3710    10.0860    -0.8260 ha         1 1M3       0.141000
     60 H24          2.9070    10.0120    -2.7750 ha         1 1M3       0.142500
     61 H25          4.8210     7.3310     2.9830 h1         1 1M3       0.064700
     62 H26          4.2450     6.4260     1.5050 h1         1 1M3       0.064700
     63 H27          6.2370     6.9680     0.2400 h1         1 1M3       0.034950
     64 H28          6.7570     6.3720     1.8810 h1         1 1M3       0.034950
     65 H30          8.9580     9.2430     1.4050 h1         1 1M3       0.036033
     66 H31          8.4400     8.2440    -0.0290 h1         1 1M3       0.036033
     67 H32          8.8830     7.4260     1.5400 h1         1 1M3       0.036033
     68 H33          6.3760     9.7600     0.0570 h1         1 1M3       0.034950
     69 H34          6.9390    10.5120     1.6180 h1         1 1M3       0.034950
     70 H35          4.9320     9.8710     2.8080 h1         1 1M3       0.064700
     71 H36          4.4240    10.6300     1.2320 h1         1 1M3       0.064700
     72 H72          2.4740    -0.9950    -2.1460 hn         1 1M3       0.441300
@<TRIPOS>BOND
     1     1     2 2   
     2     2     3 2   
     3     2     4 1   
     4     2     9 1   
     5     4     5 1   
     6     4    37 1   
     7     4    72 1   
     8     5     6 1   
     9     5     7 1   
    10     5     8 1   
    11     6    38 1   
    12     6    39 1   
    13     6    40 1   
    14     7    41 1   
    15     7    42 1   
    16     7    43 1   
    17     8    44 1   
    18     8    45 1   
    19     8    46 1   
    20     9    10 ar  
    21     9    13 ar  
    22    10    11 ar  
    23    10    47 1   
    24    11    12 ar  
    25    11    48 1   
    26    12    14 ar  
    27    12    49 1   
    28    13    14 ar  
    29    13    50 1   
    30    14    15 1   
    31    15    16 1   
    32    15    51 1   
    33    16    17 ar  
    34    16    21 ar  
    35    17    18 ar  
    36    18    19 ar  
    37    18    23 1   
    38    19    20 ar  
    39    20    21 ar  
    40    20    52 1   
    41    21    22 1   
    42    22    53 1   
    43    22    54 1   
    44    22    55 1   
    45    23    24 1   
    46    23    56 1   
    47    24    25 ar  
    48    24    29 ar  
    49    25    26 ar  
    50    25    57 1   
    51    26    27 ar  
    52    26    58 1   
    53    27    28 ar  
    54    27    30 1   
    55    28    29 ar  
    56    28    59 1   
    57    29    60 1   
    58    30    31 1   
    59    30    36 1   
    60    31    32 1   
    61    31    61 1   
    62    31    62 1   
    63    32    33 1   
    64    32    63 1   
    65    32    64 1   
    66    33    34 1   
    67    33    35 1   
    68    34    65 1   
    69    34    66 1   
    70    34    67 1   
    71    35    36 1   
    72    35    68 1   
    73    35    69 1   
    74    36    70 1   
    75    36    71 1   
@<TRIPOS>SUBSTRUCTURE
     1 1M3         1 TEMP              0 ****  ****    0 ROOT
