@<TRIPOS>MOLECULE
1M3
   71    74     1     0     0
SMALL
bcc


@<TRIPOS>ATOM
      1 O2           0.0000     0.0000     0.0000 o          1 1M3      -0.591300
      2 S1           1.4210     0.0000     0.0000 sy         1 1M3       1.042200
      3 O1           2.1970     0.0000     1.1900 o          1 1M3      -0.591300
      4 N7           1.8880    -1.3330    -0.8640 n7         1 1M3      -0.570100
      5 C23          3.3120    -1.6330    -1.0340 c3         1 1M3       0.188200
      6 C26          4.0260    -0.4060    -1.6060 c3         1 1M3      -0.032767
      7 C25          3.9240    -1.9920     0.3210 c3         1 1M3      -0.032767
      8 C24          3.4740    -2.8110    -1.9960 c3         1 1M3      -0.032767
      9 C21          1.9190     1.4180    -0.9190 ca         1 1M3      -0.137500
     10 C20          1.1530     1.8550    -1.9850 ca         1 1M3      -0.012000
     11 C19          1.5400     2.9660    -2.7090 ca         1 1M3      -0.117000
     12 C18          2.6940     3.6460    -2.3700 ca         1 1M3      -0.049000
     13 C22          3.0690     2.0970    -0.5700 ca         1 1M3      -0.033000
     14 C17          3.4650     3.2120    -1.3000 ca         1 1M3      -0.029400
     15 N1           4.6300     3.9010    -0.9500 nu         1 1M3      -0.309300
     16 C1           5.4670     4.3930    -1.9390 ca         1 1M3       0.569200
     17 N3           5.2310     4.1240    -3.2180 nb         1 1M3      -0.755000
     18 C4           6.0300     4.5920    -4.1660 ca         1 1M3       0.734900
     19 N2           7.0840     5.3410    -3.8770 nb         1 1M3      -0.726000
     20 C3           7.3790     5.6490    -2.6230 ca         1 1M3       0.526200
     21 C2           6.5680     5.1840    -1.6050 ca         1 1M3      -0.465900
     22 C5           6.8690     5.5200    -0.1670 c3         1 1M3       0.094200
     23 N4           5.7560     4.2920    -5.4900 nu         1 1M3      -0.282300
     24 C6           6.6450     4.6890    -6.4960 ca         1 1M3      -0.025400
     25 C11          8.0100     4.7340    -6.2400 ca         1 1M3      -0.094000
     26 C10          8.8860     5.1260    -7.2310 ca         1 1M3      -0.128500
     27 C9           8.4040     5.4760    -8.4860 ca         1 1M3       0.004600
     28 C8           7.0400     5.4310    -8.7430 ca         1 1M3      -0.128500
     29 C7           6.1640     5.0340    -7.7520 ca         1 1M3      -0.094000
     30 N5           9.2920     5.8730    -9.4910 nh         1 1M3      -0.351000
     31 C15         10.3130     4.8430    -9.7300 c3         1 1M3       0.090800
     32 C14         11.3090     5.3480   -10.7770 c3         1 1M3       0.155800
     33 N6          10.5890     5.6720   -12.0170 n3         1 1M3      -0.542600
     34 C16          9.9920     4.4670   -12.6090 c3         1 1M3       0.168100
     35 C13          9.5700     6.7030   -11.7770 c3         1 1M3       0.155800
     36 C12          8.5740     6.1970   -10.7310 c3         1 1M3       0.090800
     37 H1           1.1980    -1.9480    -1.2460 hn         1 1M3       0.349800
     38 H2           3.3770     0.0910    -2.3160 hc         1 1M3       0.018700
     39 H3           4.9350    -0.7180    -2.1060 hc         1 1M3       0.018700
     40 H4           4.2720     0.2760    -0.8020 hc         1 1M3       0.018700
     41 H5           4.8240    -2.5740     0.1680 hc         1 1M3       0.018700
     42 H6           3.2120    -2.5730     0.8960 hc         1 1M3       0.018700
     43 H7           4.1680    -1.0850     0.8590 hc         1 1M3       0.018700
     44 H8           3.0460    -2.5550    -2.9580 hc         1 1M3       0.018700
     45 H9           4.5270    -3.0360    -2.1190 hc         1 1M3       0.018700
     46 H10          2.9650    -3.6790    -1.5940 hc         1 1M3       0.018700
     47 H11          0.2480     1.3230    -2.2540 ha         1 1M3       0.118000
     48 H12          0.9380     3.3050    -3.5440 ha         1 1M3       0.109000
     49 H13          2.9980     4.5160    -2.9400 ha         1 1M3       0.127000
     50 H14          3.6680     1.7550     0.2650 ha         1 1M3       0.134000
     51 H15          4.8410     4.0690     0.0140 hn         1 1M3       0.298800
     52 H16          8.2430     6.2630    -2.3980 h4         1 1M3      -0.016900
     53 H17          7.7460     6.1550    -0.1200 hc         1 1M3       0.004367
     54 H18          7.0540     4.6080     0.3870 hc         1 1M3       0.004367
     55 H19          6.0230     6.0400     0.2670 hc         1 1M3       0.004367
     56 H20          4.9430     3.7570    -5.7240 hn         1 1M3       0.289800
     57 H21          8.3860     4.4620    -5.2610 ha         1 1M3       0.120500
     58 H22          9.9500     5.1610    -7.0310 ha         1 1M3       0.117500
     59 H23          6.6640     5.7020    -9.7220 ha         1 1M3       0.117500
     60 H24          5.1000     4.9990    -7.9520 ha         1 1M3       0.120500
     61 H25         10.8380     4.6350    -8.8050 h1         1 1M3       0.026450
     62 H26          9.8360     3.9410   -10.0930 h1         1 1M3       0.026450
     63 H27         12.0430     4.5770   -10.9780 h1         1 1M3       0.030200
     64 H28         11.8030     6.2380   -10.4050 h1         1 1M3       0.030200
     65 H30          9.3040     4.0200   -11.9020 h1         1 1M3       0.005033
     66 H31         10.7740     3.7570   -12.8500 h1         1 1M3       0.005033
     67 H32          9.4580     4.7360   -13.5130 h1         1 1M3       0.005033
     68 H33          9.0450     6.9120   -12.7020 h1         1 1M3       0.030200
     69 H34         10.0470     7.6040   -11.4140 h1         1 1M3       0.030200
     70 H35          7.8400     6.9680   -10.5310 h1         1 1M3       0.026450
     71 H36          8.0800     5.3080   -11.1040 h1         1 1M3       0.026450
@<TRIPOS>BOND
     1     1     2 2   
     2     2     3 2   
     3     2     4 1   
     4     2     9 1   
     5     4     5 1   
     6     4    37 1   
     7     5     6 1   
     8     5     7 1   
     9     5     8 1   
    10     6    38 1   
    11     6    39 1   
    12     6    40 1   
    13     7    41 1   
    14     7    42 1   
    15     7    43 1   
    16     8    44 1   
    17     8    45 1   
    18     8    46 1   
    19     9    10 ar  
    20     9    13 ar  
    21    10    11 ar  
    22    10    47 1   
    23    11    12 ar  
    24    11    48 1   
    25    12    14 ar  
    26    12    49 1   
    27    13    14 ar  
    28    13    50 1   
    29    14    15 1   
    30    15    16 1   
    31    15    51 1   
    32    16    17 ar  
    33    16    21 ar  
    34    17    18 ar  
    35    18    19 ar  
    36    18    23 1   
    37    19    20 ar  
    38    20    21 ar  
    39    20    52 1   
    40    21    22 1   
    41    22    53 1   
    42    22    54 1   
    43    22    55 1   
    44    23    24 1   
    45    23    56 1   
    46    24    25 ar  
    47    24    29 ar  
    48    25    26 ar  
    49    25    57 1   
    50    26    27 ar  
    51    26    58 1   
    52    27    28 ar  
    53    27    30 1   
    54    28    29 ar  
    55    28    59 1   
    56    29    60 1   
    57    30    31 1   
    58    30    36 1   
    59    31    32 1   
    60    31    61 1   
    61    31    62 1   
    62    32    33 1   
    63    32    63 1   
    64    32    64 1   
    65    33    34 1   
    66    33    35 1   
    67    34    65 1   
    68    34    66 1   
    69    34    67 1   
    70    35    36 1   
    71    35    68 1   
    72    35    69 1   
    73    36    70 1   
    74    36    71 1   
@<TRIPOS>SUBSTRUCTURE
     1 1M3         1 TEMP              0 ****  ****    0 ROOT
