@<TRIPOS>MOLECULE
1M4
   37    39     1     0     0
SMALL
bcc


@<TRIPOS>ATOM
      1 C1           0.0150     0.0520    -0.0130 ca         1 1M4      -0.191300
      2 C2           1.4050    -0.1400     0.0090 ca         1 1M4       0.193100
      3 C3           2.1030    -0.1430     1.2370 ca         1 1M4      -0.148000
      4 C4           1.4080     0.0320     2.4220 ca         1 1M4      -0.039000
      5 C5           0.0130     0.2090     2.4090 ca         1 1M4      -0.059900
      6 C6          -0.6700     0.2200     1.1990 ca         1 1M4      -0.062000
      7 C7          -0.7260     0.0840    -1.3140 c3         1 1M4       0.147500
      8 C8           0.2420     0.2380    -2.4950 c3         1 1M4      -0.093400
      9 C9           1.5050    -0.6040    -2.3430 c3         1 1M4       0.158800
     10 O10          2.1880    -0.2860    -1.1060 os         1 1M4      -0.303900
     11 C11         -1.7120     1.3120    -1.3470 c          1 1M4       0.678500
     12 N12         -3.0360     0.7610    -1.5260 n          1 1M4      -0.430300
     13 C13         -2.8620    -0.6530    -1.5170 c2         1 1M4       0.462800
     14 N14         -1.6250    -1.1070    -1.4480 n2         1 1M4      -0.518900
     15 O15         -1.4810     2.5080    -1.3010 o          1 1M4      -0.473500
     16 N16         -4.0310    -1.5520    -1.6430 nz         1 1M4      -0.780600
     17 C17         -4.2560     1.4360    -1.2250 c3         1 1M4       0.053300
     18 Br1         -0.9190     0.4310     4.0130 br         1 1M4      -0.053100
     19 C18          1.2290    -2.0990    -2.3840 c3         1 1M4      -0.107100
     20 C19          2.5060    -0.2160    -3.4300 c3         1 1M4      -0.107100
     21 H1           3.1960    -0.2810     1.2290 ha         1 1M4       0.175000
     22 H2           1.9580     0.0300     3.3790 ha         1 1M4       0.169000
     23 H3          -1.7600     0.3770     1.1830 ha         1 1M4       0.124000
     24 H4           0.5370     1.3250    -2.5350 hc         1 1M4       0.089200
     25 H5          -0.2560    -0.0240    -3.4630 hc         1 1M4       0.089200
     26 H6          -4.4490    -1.4280    -2.5740 hn         1 1M4       0.484133
     27 H7          -3.7310    -2.5320    -1.5270 hn         1 1M4       0.484133
     28 H8          -4.0470     2.5430    -1.2120 h1         1 1M4       0.072367
     29 H9          -5.0190     1.2240    -2.0220 h1         1 1M4       0.072367
     30 H10         -4.6680     1.1370    -0.2220 h1         1 1M4       0.072367
     31 H11          2.1930    -2.6560    -2.4860 hc         1 1M4       0.059533
     32 H12          0.5780    -2.3420    -3.2560 hc         1 1M4       0.059533
     33 H13          0.7330    -2.4350    -1.4430 hc         1 1M4       0.059533
     34 H14          2.1030    -0.5200    -4.4240 hc         1 1M4       0.059533
     35 H15          2.6890     0.8840    -3.4200 hc         1 1M4       0.059533
     36 H16          3.4770    -0.7380    -3.2500 hc         1 1M4       0.059533
     37 H163        -4.7220    -1.3140    -0.9190 hn         1 1M4       0.484133
@<TRIPOS>BOND
     1     1     2 ar  
     2     1     6 ar  
     3     1     7 1   
     4     2     3 ar  
     5     2    10 1   
     6     3     4 ar  
     7     3    21 1   
     8     4     5 ar  
     9     4    22 1   
    10     5     6 ar  
    11     5    18 1   
    12     6    23 1   
    13     7     8 1   
    14     7    11 1   
    15     7    14 1   
    16     8     9 1   
    17     8    24 1   
    18     8    25 1   
    19     9    10 1   
    20     9    19 1   
    21     9    20 1   
    22    11    12 1   
    23    11    15 2   
    24    12    13 1   
    25    12    17 1   
    26    13    14 2   
    27    13    16 1   
    28    16    26 1   
    29    16    27 1   
    30    16    37 1   
    31    17    28 1   
    32    17    29 1   
    33    17    30 1   
    34    19    31 1   
    35    19    32 1   
    36    19    33 1   
    37    20    34 1   
    38    20    35 1   
    39    20    36 1   
@<TRIPOS>SUBSTRUCTURE
     1 1M4         1 TEMP              0 ****  ****    0 ROOT
