@<TRIPOS>MOLECULE
1M4
   37    39     1     0     0
SMALL
bcc


@<TRIPOS>ATOM
      1 C1           0.0000     0.0000     0.0000 ca         1 1M4      -0.201300
      2 C2           1.3860     0.0000     0.0000 ca         1 1M4       0.209100
      3 C3           2.0740     0.0000     1.2090 ca         1 1M4      -0.122000
      4 C4           1.3840     0.0050     2.4030 ca         1 1M4      -0.009000
      5 C5          -0.0000     0.0100     2.3990 ca         1 1M4      -0.006900
      6 C6          -0.6880     0.0070     1.2020 ca         1 1M4      -0.048000
      7 C7          -0.7760    -0.0150    -1.2880 c3         1 1M4       0.096500
      8 C8           0.1130     0.4010    -2.4560 c3         1 1M4      -0.039400
      9 C9           1.4330    -0.3760    -2.3590 c3         1 1M4       0.163800
     10 O10          2.0980     0.0090    -1.1560 os         1 1M4      -0.279900
     11 C11         -1.9770     0.8960    -1.1900 c          1 1M4       0.615500
     12 N12         -3.0430     0.0860    -1.3650 n          1 1M4      -0.053300
     13 C13         -2.6380    -1.2120    -1.5600 c2         1 1M4       0.063800
     14 N14         -1.3460    -1.3450    -1.5270 n2         1 1M4      -0.422900
     15 O15         -1.9820     2.0930    -0.9940 o          1 1M4      -0.513500
     16 N16         -3.5060    -2.2570    -1.7660 nz         1 1M4       0.224400
     17 C17         -4.4390     0.5310    -1.3510 c3         1 1M4       0.066300
     18 Br1         -0.9500     0.0190     4.0350 br         1 1M4      -0.089100
     19 C18          1.1440    -1.8770    -2.3290 c3         1 1M4      -0.017100
     20 C19          2.3140    -0.0450    -3.5670 c3         1 1M4      -0.017100
     21 H1           3.1580    -0.0020     1.2130 ha         1 1M4       0.136000
     22 H2           1.9230     0.0550     3.3410 ha         1 1M4       0.130000
     23 H3          -1.7710     0.0110     1.2020 ha         1 1M4       0.096000
     24 H4           0.3120     1.4650    -2.4010 hc         1 1M4       0.051700
     25 H5          -0.3800     0.1650    -3.3910 hc         1 1M4       0.051700
     26 H6          -4.1410    -2.3200    -0.9940 hn         1 1M4       0.222133
     27 H7          -2.9890    -3.1100    -1.8420 hn         1 1M4       0.222133
     28 H8          -4.4780     1.5940    -1.1450 h1         1 1M4       0.036367
     29 H9          -4.8910     0.3330    -2.3150 h1         1 1M4       0.036367
     30 H10         -4.9810    -0.0060    -0.5810 h1         1 1M4       0.036367
     31 H11          0.4190    -2.1210    -3.0970 hc         1 1M4       0.023200
     32 H12          2.0610    -2.4250    -2.5120 hc         1 1M4       0.023200
     33 H13          0.7470    -2.1500    -1.3590 hc         1 1M4       0.023200
     34 H14          3.2710    -0.5410    -3.4620 hc         1 1M4       0.023200
     35 H15          1.8280    -0.3870    -4.4730 hc         1 1M4       0.023200
     36 H16          2.4660     1.0260    -3.6200 hc         1 1M4       0.023200
     37 H163        -4.0310    -2.0960    -2.6030 hn         1 1M4       0.222133
@<TRIPOS>BOND
     1     1     2 ar  
     2     1     6 ar  
     3     1     7 1   
     4     2     3 ar  
     5     2    10 1   
     6     3     4 ar  
     7     3    21 1   
     8     4     5 ar  
     9     4    22 1   
    10     5     6 ar  
    11     5    18 1   
    12     6    23 1   
    13     7     8 1   
    14     7    11 1   
    15     7    14 1   
    16     8     9 1   
    17     8    24 1   
    18     8    25 1   
    19     9    10 1   
    20     9    19 1   
    21     9    20 1   
    22    11    12 1   
    23    11    15 2   
    24    12    13 1   
    25    12    17 1   
    26    13    14 2   
    27    13    16 1   
    28    16    26 1   
    29    16    27 1   
    30    16    37 1   
    31    17    28 1   
    32    17    29 1   
    33    17    30 1   
    34    19    31 1   
    35    19    32 1   
    36    19    33 1   
    37    20    34 1   
    38    20    35 1   
    39    20    36 1   
@<TRIPOS>SUBSTRUCTURE
     1 1M4         1 TEMP              0 ****  ****    0 ROOT
