@<TRIPOS>MOLECULE
1M5
   47    50     1     0     0
SMALL
bcc


@<TRIPOS>ATOM
      1 C1           0.0000     0.0000     0.0000 cp         1 1M5      -0.045000
      2 C2           1.3940     0.0000     0.0000 ca         1 1M5      -0.031000
      3 C3           2.0790     0.0000     1.1950 ca         1 1M5      -0.120000
      4 C4           1.3870    -0.0000     2.4030 ca         1 1M5       0.200100
      5 C5          -0.0000     0.0030     2.4060 ca         1 1M5      -0.198300
      6 C6          -0.6920     0.0080     1.2080 ca         1 1M5      -0.070000
      7 O7           2.1000    -0.0170     3.5590 os         1 1M5      -0.281900
      8 C8           1.4350     0.3620     4.7650 c3         1 1M5       0.163800
      9 C9           0.1160    -0.4180     4.8590 c3         1 1M5      -0.037400
     10 C10         -0.7750     0.0120     3.6950 c3         1 1M5       0.094500
     11 C11         -0.7450    -0.0010    -1.2840 cp         1 1M5      -0.029000
     12 C12          2.3220     0.0290     5.9670 c3         1 1M5      -0.017600
     13 C13          1.1450     1.8640     4.7410 c3         1 1M5      -0.017600
     14 C14         -1.9720    -0.9050     3.5850 c          1 1M5       0.616500
     15 N15         -3.0420    -0.1010     3.7690 n          1 1M5      -0.057300
     16 C16         -2.6420     1.1970     3.9790 c2         1 1M5       0.060800
     17 N17         -1.3510     1.3360     3.9500 n2         1 1M5      -0.417900
     18 N18         -3.5140     2.2360     4.1960 nz         1 1M5       0.225400
     19 O19         -1.9720    -2.0990     3.3770 o          1 1M5      -0.514500
     20 C20         -4.4360    -0.5500     3.7490 c3         1 1M5       0.066300
     21 C21         -0.0530    -0.0030    -2.4930 ca         1 1M5      -0.091000
     22 C22         -0.7510    -0.0040    -3.6850 ca         1 1M5      -0.028600
     23 C23         -2.1350    -0.0040    -3.6780 ca         1 1M5      -0.085000
     24 C24         -2.8260    -0.0010    -2.4800 ca         1 1M5      -0.084000
     25 C25         -2.1390    -0.0070    -1.2840 ca         1 1M5      -0.113000
     26 Cl1          0.1080    -0.0070    -5.1930 cl         1 1M5       0.004600
     27 H1           1.9370    -0.0060    -0.9370 ha         1 1M5       0.126000
     28 H2           3.1620    -0.0000     1.1950 ha         1 1M5       0.132000
     29 H3          -1.7750     0.0080     1.2100 ha         1 1M5       0.096000
     30 H4           0.3160    -1.4810     4.7930 hc         1 1M5       0.051200
     31 H5          -0.3750    -0.1900     5.7970 hc         1 1M5       0.051200
     32 H6           3.2790     0.5250     5.8580 hc         1 1M5       0.022533
     33 H7           2.4740    -1.0420     6.0180 hc         1 1M5       0.022533
     34 H8           1.8400     0.3690     6.8760 hc         1 1M5       0.022533
     35 H9           0.4190     2.1040     5.5080 hc         1 1M5       0.022533
     36 H10          0.7490     2.1400     3.7710 hc         1 1M5       0.022533
     37 H11          2.0600     2.4120     4.9260 hc         1 1M5       0.022533
     38 H12         -4.0110     2.0820     5.0510 hn         1 1M5       0.221800
     39 H13         -3.0020     3.0940     4.2580 hn         1 1M5       0.221800
     40 H14         -4.4710    -1.6100     3.5250 h1         1 1M5       0.035367
     41 H15         -4.8880    -0.3710     4.7170 h1         1 1M5       0.035367
     42 H16         -4.9810    -0.0030     2.9890 h1         1 1M5       0.035367
     43 H17          1.0300    -0.0040    -2.4980 ha         1 1M5       0.125000
     44 H18         -2.6800    -0.0020    -4.6150 ha         1 1M5       0.122000
     45 H19         -3.9090    -0.0030    -2.4810 ha         1 1M5       0.106000
     46 H20         -2.6810    -0.0040    -0.3460 ha         1 1M5       0.091000
     47 H183        -4.1750     2.2790     3.4460 hn         1 1M5       0.221800
@<TRIPOS>BOND
     1     1     2 ar  
     2     1     6 ar  
     3     1    11 1   
     4     2     3 ar  
     5     2    27 1   
     6     3     4 ar  
     7     3    28 1   
     8     4     5 ar  
     9     4     7 1   
    10     5     6 ar  
    11     5    10 1   
    12     6    29 1   
    13     7     8 1   
    14     8     9 1   
    15     8    12 1   
    16     8    13 1   
    17     9    10 1   
    18     9    30 1   
    19     9    31 1   
    20    10    14 1   
    21    10    17 1   
    22    11    21 ar  
    23    11    25 ar  
    24    12    32 1   
    25    12    33 1   
    26    12    34 1   
    27    13    35 1   
    28    13    36 1   
    29    13    37 1   
    30    14    15 1   
    31    14    19 2   
    32    15    16 1   
    33    15    20 1   
    34    16    17 2   
    35    16    18 1   
    36    18    38 1   
    37    18    39 1   
    38    18    47 1   
    39    20    40 1   
    40    20    41 1   
    41    20    42 1   
    42    21    22 ar  
    43    21    43 1   
    44    22    23 ar  
    45    22    26 1   
    46    23    24 ar  
    47    23    44 1   
    48    24    25 ar  
    49    24    45 1   
    50    25    46 1   
@<TRIPOS>SUBSTRUCTURE
     1 1M5         1 TEMP              0 ****  ****    0 ROOT
