@<TRIPOS>MOLECULE
1M5
   47    50     1     0     0
SMALL
bcc


@<TRIPOS>ATOM
      1 C1           0.0040    -0.0160     0.0420 cp         1 1M5      -0.055000
      2 C2           1.4090     0.0810     0.0400 ca         1 1M5      -0.056000
      3 C3           2.1160     0.1470     1.2280 ca         1 1M5      -0.147000
      4 C4           1.4210     0.1090     2.4570 ca         1 1M5       0.182100
      5 C5           0.0240    -0.0080     2.4760 ca         1 1M5      -0.189300
      6 C6          -0.6720    -0.0590     1.2600 ca         1 1M5      -0.079000
      7 O7           2.2150     0.1430     3.5760 os         1 1M5      -0.305900
      8 C8           1.5510     0.4370     4.8280 c3         1 1M5       0.158800
      9 C9           0.2470    -0.3480     4.9440 c3         1 1M5      -0.092400
     10 C10         -0.7140    -0.0850     3.7760 c3         1 1M5       0.148500
     11 C11         -0.7380    -0.0720    -1.2160 cp         1 1M5      -0.038000
     12 C12          2.5310    -0.0510     5.8930 c3         1 1M5      -0.107100
     13 C13          1.3480     1.9400     4.9420 c3         1 1M5      -0.107100
     14 C14         -1.7500    -1.2710     3.7400 c          1 1M5       0.678500
     15 N15         -3.0520    -0.6790     3.9560 n          1 1M5      -0.428300
     16 C16         -2.8180     0.7250     4.0280 c2         1 1M5       0.459800
     17 N17         -1.5630     1.1320     3.9840 n2         1 1M5      -0.516900
     18 N18         -3.9500     1.6620     4.2110 nz         1 1M5      -0.780600
     19 O19         -1.5690    -2.4710     3.6220 o          1 1M5      -0.475500
     20 C20         -4.2940    -1.2770     3.5890 c3         1 1M5       0.052300
     21 C21         -1.9210     0.6650    -1.3640 ca         1 1M5      -0.128000
     22 C22         -2.6330     0.6010    -2.5630 ca         1 1M5       0.016400
     23 C23         -2.1770    -0.1870    -3.6250 ca         1 1M5      -0.108000
     24 C24         -0.9970    -0.9140    -3.4740 ca         1 1M5      -0.110000
     25 C25         -0.2790    -0.8610    -2.2800 ca         1 1M5      -0.111000
     26 Cl1         -4.0700     1.4960    -2.7280 cl         1 1M5      -0.091400
     27 H1           1.9480     0.1150    -0.9220 ha         1 1M5       0.158000
     28 H2           3.2140     0.2280     1.2390 ha         1 1M5       0.171000
     29 H3          -1.7690    -0.1550     1.2650 ha         1 1M5       0.117000
     30 H4           0.4880    -1.4480     4.9260 hc         1 1M5       0.088200
     31 H5          -0.2350    -0.1120     5.9260 hc         1 1M5       0.088200
     32 H6           3.5260     0.4310     5.7370 hc         1 1M5       0.058700
     33 H7           2.6610    -1.1570     5.8280 hc         1 1M5       0.058700
     34 H8           2.1420     0.2220     6.9020 hc         1 1M5       0.058700
     35 H9           0.8630     2.3430     4.0220 hc         1 1M5       0.058700
     36 H10          0.7150     2.1730     5.8300 hc         1 1M5       0.058700
     37 H11          2.3380     2.4440     5.0620 hc         1 1M5       0.058700
     38 H12         -4.3690     1.5020     5.1370 hn         1 1M5       0.483800
     39 H13         -4.6520     1.4940     3.4790 hn         1 1M5       0.483800
     40 H14         -5.0630    -1.0800     4.3830 h1         1 1M5       0.072033
     41 H15         -4.6700    -0.9000     2.5990 h1         1 1M5       0.072033
     42 H16         -4.1330    -2.3910     3.5120 h1         1 1M5       0.072033
     43 H17         -2.2750     1.3040    -0.5430 ha         1 1M5       0.129000
     44 H18         -2.7410    -0.2310    -4.5700 ha         1 1M5       0.160000
     45 H19         -0.6310    -1.5360    -4.3060 ha         1 1M5       0.152000
     46 H20          0.6480    -1.4440    -2.1700 ha         1 1M5       0.146000
     47 H183        -3.6100     2.6340     4.1500 hn         1 1M5       0.483800
@<TRIPOS>BOND
     1     1     2 ar  
     2     1     6 ar  
     3     1    11 1   
     4     2     3 ar  
     5     2    27 1   
     6     3     4 ar  
     7     3    28 1   
     8     4     5 ar  
     9     4     7 1   
    10     5     6 ar  
    11     5    10 1   
    12     6    29 1   
    13     7     8 1   
    14     8     9 1   
    15     8    12 1   
    16     8    13 1   
    17     9    10 1   
    18     9    30 1   
    19     9    31 1   
    20    10    14 1   
    21    10    17 1   
    22    11    21 ar  
    23    11    25 ar  
    24    12    32 1   
    25    12    33 1   
    26    12    34 1   
    27    13    35 1   
    28    13    36 1   
    29    13    37 1   
    30    14    15 1   
    31    14    19 2   
    32    15    16 1   
    33    15    20 1   
    34    16    17 2   
    35    16    18 1   
    36    18    38 1   
    37    18    39 1   
    38    18    47 1   
    39    20    40 1   
    40    20    41 1   
    41    20    42 1   
    42    21    22 ar  
    43    21    43 1   
    44    22    23 ar  
    45    22    26 1   
    46    23    24 ar  
    47    23    44 1   
    48    24    25 ar  
    49    24    45 1   
    50    25    46 1   
@<TRIPOS>SUBSTRUCTURE
     1 1M5         1 TEMP              0 ****  ****    0 ROOT
