@<TRIPOS>MOLECULE
molecule
   47    50     1     0     0
SMALL
bcc


@<TRIPOS>ATOM
      1 C1           0.0000     0.0000     0.0000 cp         1 1M5      -0.052000
      2 C2           1.3940     0.0000     0.0000 ca         1 1M5      -0.057000
      3 C3           2.0790     0.0000     1.1950 ca         1 1M5      -0.143000
      4 C4           1.3870    -0.0000     2.4030 ca         1 1M5       0.189100
      5 C5          -0.0000     0.0030     2.4060 ca         1 1M5      -0.177300
      6 C6          -0.6920     0.0080     1.2080 ca         1 1M5      -0.084000
      7 O7           2.1000    -0.0170     3.5590 os         1 1M5      -0.305900
      8 C8           1.4350     0.3620     4.7650 c3         1 1M5       0.157800
      9 C9           0.1160    -0.4180     4.8590 c3         1 1M5      -0.083400
     10 C10         -0.7750     0.0120     3.6950 c3         1 1M5       0.100500
     11 C11         -0.7450    -0.0010    -1.2840 cp         1 1M5      -0.031000
     12 C12          2.3220     0.0290     5.9670 c3         1 1M5      -0.097600
     13 C13          1.1450     1.8640     4.7410 c3         1 1M5      -0.097600
     14 C14         -1.9720    -0.9050     3.5850 c          1 1M5       0.699500
     15 N15         -3.0420    -0.1010     3.7690 n          1 1M5      -0.436300
     16 C16         -2.6420     1.1970     3.9790 c2         1 1M5       0.439800
     17 N17         -1.3510     1.3360     3.9500 n2         1 1M5      -0.517900
     18 N18         -3.5140     2.2360     4.1960 nz         1 1M5      -0.722600
     19 O19         -1.9720    -2.0990     3.3770 o          1 1M5      -0.490500
     20 C20         -4.4360    -0.5500     3.7490 c3         1 1M5       0.072300
     21 C21         -0.0530    -0.0030    -2.4930 ca         1 1M5      -0.110000
     22 C22         -0.7510    -0.0040    -3.6850 ca         1 1M5       0.038400
     23 C23         -2.1350    -0.0040    -3.6780 ca         1 1M5      -0.110000
     24 C24         -2.8260    -0.0010    -2.4800 ca         1 1M5      -0.115000
     25 C25         -2.1390    -0.0070    -1.2840 ca         1 1M5      -0.131000
     26 Cl1          0.1080    -0.0070    -5.1930 cl         1 1M5      -0.082400
     27 H1           1.9370    -0.0060    -0.9370 ha         1 1M5       0.157000
     28 H2           3.1620    -0.0000     1.1950 ha         1 1M5       0.166000
     29 H3          -1.7750     0.0080     1.2100 ha         1 1M5       0.120000
     30 H4           0.3160    -1.4810     4.7930 hc         1 1M5       0.084200
     31 H5          -0.3750    -0.1900     5.7970 hc         1 1M5       0.084200
     32 H6           3.2790     0.5250     5.8580 hc         1 1M5       0.055533
     33 H7           2.4740    -1.0420     6.0180 hc         1 1M5       0.055533
     34 H8           1.8400     0.3690     6.8760 hc         1 1M5       0.055533
     35 H9           0.4190     2.1040     5.5080 hc         1 1M5       0.055533
     36 H10          0.7490     2.1400     3.7710 hc         1 1M5       0.055533
     37 H11          2.0600     2.4120     4.9260 hc         1 1M5       0.055533
     38 H12         -4.0110     2.0820     5.0510 hn         1 1M5       0.479467
     39 H13         -3.0020     3.0940     4.2580 hn         1 1M5       0.479467
     40 H14         -4.4710    -1.6100     3.5250 h1         1 1M5       0.069700
     41 H15         -4.8880    -0.3710     4.7170 h1         1 1M5       0.069700
     42 H16         -4.9810    -0.0030     2.9890 h1         1 1M5       0.069700
     43 H17          1.0300    -0.0040    -2.4980 ha         1 1M5       0.150000
     44 H18         -2.6800    -0.0020    -4.6150 ha         1 1M5       0.154000
     45 H19         -3.9090    -0.0030    -2.4810 ha         1 1M5       0.138000
     46 H20         -2.6810    -0.0040    -0.3460 ha         1 1M5       0.115000
     47 H183        -4.1750     2.2790     3.4460 hn         1 1M5       0.479467
@<TRIPOS>BOND
     1    19    14 2
     2    12     8 1
     3    14    15 1
     4    14    10 1
     5    20    15 1
     6     9     8 1
     7     9    10 1
     8    15    16 1
     9     7     8 1
    10     7     4 1
    11     8    13 1
    12    10     5 1
    13    10    17 1
    14     4     5 ar
    15     4     3 ar
    16     5     6 ar
    17     3     2 ar
    18     6     1 ar
    19     2     1 ar
    20    16    17 2
    21    16    18 1
    22    25    24 ar
    23    25    11 ar
    24     1    11 1
    25    24    23 ar
    26    11    21 ar
    27    23    22 ar
    28    21    22 ar
    29    22    26 1
    30     2    27 1
    31     3    28 1
    32     6    29 1
    33     9    30 1
    34     9    31 1
    35    12    32 1
    36    12    33 1
    37    12    34 1
    38    13    35 1
    39    13    36 1
    40    13    37 1
    41    18    38 1
    42    18    39 1
    43    20    40 1
    44    20    41 1
    45    20    42 1
    46    21    43 1
    47    23    44 1
    48    24    45 1
    49    25    46 1
    50    47    18 1
@<TRIPOS>SUBSTRUCTURE
     1 1M5         1 TEMP              0 ****  ****    0 ROOT
