@<TRIPOS>MOLECULE
1M6
   48    51     1     0     0
SMALL
bcc


@<TRIPOS>ATOM
      1 C1           0.0030    -0.0200     0.0310 cp         1 1M6      -0.058000
      2 C2           1.4090     0.0660     0.0400 ca         1 1M6      -0.056000
      3 C3           2.1070     0.1250     1.2340 ca         1 1M6      -0.146000
      4 C4           1.4030     0.0920     2.4580 ca         1 1M6       0.184100
      5 C5           0.0040    -0.0130     2.4660 ca         1 1M6      -0.187300
      6 C6          -0.6830    -0.0610     1.2450 ca         1 1M6      -0.078000
      7 O7           2.1870     0.1190     3.5830 os         1 1M6      -0.305900
      8 C8           1.5170     0.4190     4.8300 c3         1 1M6       0.158800
      9 C9           0.2030    -0.3510     4.9350 c3         1 1M6      -0.092400
     10 C10         -0.7460    -0.0760     3.7610 c3         1 1M6       0.147500
     11 C11         -1.7990    -1.2460     3.7200 c          1 1M6       0.679500
     12 N12         -3.0920    -0.6340     3.9240 n          1 1M6      -0.431300
     13 C13         -2.8400     0.7660     3.9970 c2         1 1M6       0.461800
     14 N14         -1.5790     1.1540     3.9590 n2         1 1M6      -0.518900
     15 C15         -0.7340    -0.0620    -1.2300 cp         1 1M6      -0.047000
     16 C16         -4.3460    -1.2220     3.5840 c3         1 1M6       0.053300
     17 N17         -3.9590     1.7200     4.1690 nz         1 1M6      -0.780600
     18 C18         -1.9300     0.6530    -1.3610 ca         1 1M6      -0.096000
     19 C19         -2.6540     0.6040    -2.5590 ca         1 1M6      -0.016000
     20 C20         -2.1780    -0.1520    -3.6390 ca         1 1M6      -0.076000
     21 C21         -0.9820    -0.8570    -3.5080 ca         1 1M6      -0.123000
     22 C22         -0.2630    -0.8170    -2.3150 ca         1 1M6      -0.090000
     23 O23         -1.6360    -2.4500     3.6050 o          1 1M6      -0.476500
     24 C24          2.4830    -0.0820     5.9020 c3         1 1M6      -0.107100
     25 C25          1.3320     1.9240     4.9450 c3         1 1M6      -0.107100
     26 C26         -3.8760     1.3230    -2.6600 cg         1 1M6       0.227800
     27 N27         -4.8780     1.9110    -2.7250 n1         1 1M6      -0.355800
     28 H1           1.9560     0.0990    -0.9160 ha         1 1M6       0.157000
     29 H2           3.2060     0.1950     1.2530 ha         1 1M6       0.172000
     30 H3          -1.7800    -0.1540     1.2430 ha         1 1M6       0.117000
     31 H4           0.4310    -1.4540     4.9200 hc         1 1M6       0.088700
     32 H5          -0.2840    -0.1080     5.9140 hc         1 1M6       0.088700
     33 H6          -5.0990    -1.0130     4.3920 h1         1 1M6       0.072033
     34 H7          -4.7370    -0.8440     2.6000 h1         1 1M6       0.072033
     35 H8          -4.1980    -2.3370     3.5090 h1         1 1M6       0.072033
     36 H9          -3.6040     2.6870     4.1100 hn         1 1M6       0.484467
     37 H10         -4.3880     1.5670     5.0910 hn         1 1M6       0.484467
     38 H11         -2.2970     1.2690    -0.5270 ha         1 1M6       0.126000
     39 H12         -2.7450    -0.1870    -4.5830 ha         1 1M6       0.158000
     40 H13         -0.6040    -1.4510    -4.3550 ha         1 1M6       0.155000
     41 H14          0.6750    -1.3860    -2.2200 ha         1 1M6       0.148000
     42 H15          3.4850     0.3880     5.7540 hc         1 1M6       0.058867
     43 H16          2.6000    -1.1900     5.8370 hc         1 1M6       0.058867
     44 H17          2.0910     0.1950     6.9080 hc         1 1M6       0.058867
     45 H18          0.6930     2.1640     5.8270 hc         1 1M6       0.058867
     46 H19          0.8600     2.3350     4.0210 hc         1 1M6       0.058867
     47 H20          2.3260     2.4160     5.0740 hc         1 1M6       0.058867
     48 H173        -4.6570     1.5620     3.4320 hn         1 1M6       0.484467
@<TRIPOS>BOND
     1     1     2 ar  
     2     1     6 ar  
     3     1    15 1   
     4     2     3 ar  
     5     2    28 1   
     6     3     4 ar  
     7     3    29 1   
     8     4     5 ar  
     9     4     7 1   
    10     5     6 ar  
    11     5    10 1   
    12     6    30 1   
    13     7     8 1   
    14     8     9 1   
    15     8    24 1   
    16     8    25 1   
    17     9    10 1   
    18     9    31 1   
    19     9    32 1   
    20    10    11 1   
    21    10    14 1   
    22    11    12 1   
    23    11    23 2   
    24    12    13 1   
    25    12    16 1   
    26    13    14 2   
    27    13    17 1   
    28    15    18 ar  
    29    15    22 ar  
    30    16    33 1   
    31    16    34 1   
    32    16    35 1   
    33    17    36 1   
    34    17    37 1   
    35    17    48 1   
    36    18    19 ar  
    37    18    38 1   
    38    19    20 ar  
    39    19    26 1   
    40    20    21 ar  
    41    20    39 1   
    42    21    22 ar  
    43    21    40 1   
    44    22    41 1   
    45    24    42 1   
    46    24    43 1   
    47    24    44 1   
    48    25    45 1   
    49    25    46 1   
    50    25    47 1   
    51    26    27 3   
@<TRIPOS>SUBSTRUCTURE
     1 1M6         1 TEMP              0 ****  ****    0 ROOT
