@<TRIPOS>MOLECULE
1M6
   48    51     1     0     0
SMALL
bcc


@<TRIPOS>ATOM
      1 C1           0.0000     0.0000     0.0000 cp         1 1M6      -0.132000
      2 C2           1.3940     0.0000     0.0000 ca         1 1M6      -0.062000
      3 C3           2.0780     0.0000     1.1960 ca         1 1M6      -0.104000
      4 C4           1.3870    -0.0000     2.4040 ca         1 1M6       0.228100
      5 C5          -0.0010     0.0020     2.4060 ca         1 1M6      -0.173300
      6 C6          -0.6910     0.0070     1.2080 ca         1 1M6      -0.110000
      7 O7           2.0990    -0.0160     3.5590 os         1 1M6      -0.275900
      8 C8           1.4340     0.3640     4.7650 c3         1 1M6       0.198800
      9 C9           0.1160    -0.4170     4.8590 c3         1 1M6      -0.079400
     10 C10         -0.7750     0.0100     3.6940 c3         1 1M6       0.139500
     11 C11         -1.9720    -0.9080     3.5850 c          1 1M6       0.607500
     12 N12         -3.0430    -0.1050     3.7690 n          1 1M6       0.012700
     13 C13         -2.6440     1.1940     3.9770 c2         1 1M6       0.274800
     14 N14         -1.3540     1.3340     3.9480 n2         1 1M6      -0.532900
     15 C15         -0.7440    -0.0010    -1.2840 cp         1 1M6       0.047000
     16 C16         -4.4360    -0.5550     3.7470 c3         1 1M6       0.051300
     17 N17         -3.5180     2.2330     4.1920 nz         1 1M6      -0.562600
     18 C18         -0.0510    -0.0010    -2.4910 ca         1 1M6      -0.162000
     19 C19         -0.7570    -0.0040    -3.6930 ca         1 1M6       0.086000
     20 C20         -2.1540    -0.0040    -3.6780 ca         1 1M6      -0.084000
     21 C21         -2.8330    -0.0040    -2.4770 ca         1 1M6      -0.092000
     22 C22         -2.1380    -0.0080    -1.2830 ca         1 1M6      -0.170000
     23 O23         -1.9710    -2.1030     3.3780 o          1 1M6      -0.514500
     24 C24          2.3200     0.0320     5.9680 c3         1 1M6      -0.077100
     25 C25          1.1420     1.8650     4.7410 c3         1 1M6      -0.077100
     26 C26         -0.0520    -0.0030    -4.9390 cg         1 1M6       0.200800
     27 N27          0.4940    -0.0160    -5.9350 n1         1 1M6      -0.329800
     28 H1           1.5050     0.3010    -1.0350 ha         1 1M6       0.163000
     29 H2           3.0950     0.2600     0.9260 ha         1 1M6       0.139000
     30 H3          -1.6950    -0.1510     0.8330 ha         1 1M6       0.140000
     31 H4           0.5770    -1.3830     5.0250 hc         1 1M6       0.054200
     32 H5          -0.5000    -0.3860     5.7500 hc         1 1M6       0.054200
     33 H6          -4.6440    -1.0200     4.7030 h1         1 1M6       0.030367
     34 H7          -5.0460     0.3070     3.9910 h1         1 1M6       0.030367
     35 H8          -4.9070    -1.3890     3.2410 h1         1 1M6       0.030367
     36 H9          -4.4810     2.0490     4.3910 hn         1 1M6       0.444800
     37 H10         -3.1400     3.1160     4.4740 hn         1 1M6       0.444800
     38 H11          0.3870    -0.9310    -2.8350 ha         1 1M6       0.164000
     39 H12         -2.9150     0.0170    -4.4490 ha         1 1M6       0.127000
     40 H13         -3.8790    -0.0250    -2.1960 ha         1 1M6       0.113000
     41 H14         -2.7750    -0.4630    -0.5340 ha         1 1M6       0.112000
     42 H15          2.0390    -0.3760     6.9310 hc         1 1M6       0.033700
     43 H16          3.2340    -0.4360     5.6250 hc         1 1M6       0.033700
     44 H17          2.6500     0.9380     6.4610 hc         1 1M6       0.033700
     45 H18          1.9360     2.3810     4.2160 hc         1 1M6       0.033700
     46 H19          0.8250     2.2470     5.7040 hc         1 1M6       0.033700
     47 H20          0.2470     1.7010     4.1520 hc         1 1M6       0.033700
     48 H173        -2.9760     3.0300     4.4610 hn         1 1M6       0.444800
@<TRIPOS>BOND
     1     1     2 ar  
     2     1     6 ar  
     3     1    15 1   
     4     2     3 ar  
     5     2    28 1   
     6     3     4 ar  
     7     3    29 1   
     8     4     5 ar  
     9     4     7 1   
    10     5     6 ar  
    11     5    10 1   
    12     6    30 1   
    13     7     8 1   
    14     8     9 1   
    15     8    24 1   
    16     8    25 1   
    17     9    10 1   
    18     9    31 1   
    19     9    32 1   
    20    10    11 1   
    21    10    14 1   
    22    11    12 1   
    23    11    23 2   
    24    12    13 1   
    25    12    16 1   
    26    13    14 2   
    27    13    17 1   
    28    15    18 ar  
    29    15    22 ar  
    30    16    33 1   
    31    16    34 1   
    32    16    35 1   
    33    17    36 1   
    34    17    37 1   
    35    17    48 1   
    36    18    19 ar  
    37    18    38 1   
    38    19    20 ar  
    39    19    26 1   
    40    20    21 ar  
    41    20    39 1   
    42    21    22 ar  
    43    21    40 1   
    44    22    41 1   
    45    24    42 1   
    46    24    43 1   
    47    24    44 1   
    48    25    45 1   
    49    25    46 1   
    50    25    47 1   
    51    26    27 3   
@<TRIPOS>SUBSTRUCTURE
     1 1M6         1 TEMP              0 ****  ****    0 ROOT
