@<TRIPOS>MOLECULE
1M7
   47    50     1     0     0
SMALL
bcc


@<TRIPOS>ATOM
      1 C1          -0.0090    -0.0500     0.0640 cp         1 1M7      -0.020000
      2 C2           1.3900     0.0750     0.0610 ca         1 1M7      -0.082000
      3 C3           2.0860     0.1550     1.2600 ca         1 1M7      -0.124000
      4 C4           1.4170     0.1110     2.4940 ca         1 1M7      -0.015300
      5 C5           0.0220    -0.0200     2.4990 ca         1 1M7      -0.103300
      6 C6          -0.6800    -0.0950     1.2890 ca         1 1M7      -0.110000
      7 C7           2.2300     0.1680     3.7360 c3         1 1M7      -0.047100
      8 C8           1.4330     0.5320     4.9860 c3         1 1M7      -0.044000
      9 C9           0.1490    -0.2880     5.0170 c3         1 1M7      -0.057400
     10 C10         -0.7500    -0.0770     3.7890 c3         1 1M7       0.143500
     11 C11         -0.7510    -0.1310    -1.1820 cp         1 1M7      -0.284600
     12 C12         -1.7610    -1.2870     3.7530 c          1 1M7       0.675500
     13 N13         -3.0770    -0.7190     3.9390 n          1 1M7      -0.431300
     14 C14         -2.8780     0.6910     3.9770 c2         1 1M7       0.456800
     15 N15         -1.6330     1.1260     3.9300 n2         1 1M7      -0.512900
     16 O16         -1.5540    -2.4860     3.6590 o          1 1M7      -0.480500
     17 C17         -4.3070    -1.3620     3.6110 c3         1 1M7       0.054300
     18 N18         -4.0320     1.6050     4.1280 nz         1 1M7      -0.779600
     19 C19         -0.2730    -0.8610    -2.2980 ca         1 1M7       0.439200
     20 N20         -0.9600    -0.9460    -3.4530 nb         1 1M7      -0.682000
     21 C21         -2.1520    -0.2890    -3.4940 ca         1 1M7       0.643900
     22 N22         -2.7090     0.4430    -2.4900 nb         1 1M7      -0.682000
     23 C23         -1.9980     0.5150    -1.3490 ca         1 1M7       0.439200
     24 C24          2.2550     0.1610     6.2180 c3         1 1M7      -0.092600
     25 C25          1.1550     2.0260     5.0190 c3         1 1M7      -0.092600
     26 H1           1.9340     0.1160    -0.8970 ha         1 1M7       0.155000
     27 H2           3.1840     0.2560     1.2490 ha         1 1M7       0.155000
     28 H3          -1.7740    -0.2120     1.2960 ha         1 1M7       0.115000
     29 H4           3.0630     0.9120     3.6080 hc         1 1M7       0.075200
     30 H5           2.7080    -0.8410     3.8840 hc         1 1M7       0.075200
     31 H6          -0.4180    -0.0600     5.9580 hc         1 1M7       0.074700
     32 H7           0.4210    -1.3810     5.0340 hc         1 1M7       0.074700
     33 H8          -4.7100    -1.0210     2.6190 h1         1 1M7       0.071367
     34 H9          -5.0690    -1.1640     4.4130 h1         1 1M7       0.071367
     35 H10         -4.1170    -2.4720     3.5620 h1         1 1M7       0.071367
     36 H11         -3.7160     2.5820     4.0360 hn         1 1M7       0.483467
     37 H12         -4.4480     1.4650     5.0580 hn         1 1M7       0.483467
     38 H13          0.6920    -1.4010    -2.2580 h4         1 1M7       0.025600
     39 H14         -2.7250    -0.3550    -4.4440 h5         1 1M7       0.070100
     40 H15         -2.4340     1.1250    -0.5390 h4         1 1M7       0.025600
     41 H16          3.2460     0.6740     6.1820 hc         1 1M7       0.046200
     42 H17          1.7220     0.4800     7.1460 hc         1 1M7       0.046200
     43 H18          2.4260    -0.9410     6.2630 hc         1 1M7       0.046200
     44 H19          2.0990     2.5850     5.2320 hc         1 1M7       0.046200
     45 H20          0.7580     2.3770     4.0360 hc         1 1M7       0.046200
     46 H21          0.4150     2.2670     5.8190 hc         1 1M7       0.046200
     47 H183        -4.7290     1.3970     3.4020 hn         1 1M7       0.483467
@<TRIPOS>BOND
     1     1     2 ar  
     2     1     6 ar  
     3     1    11 1   
     4     2     3 ar  
     5     2    26 1   
     6     3     4 ar  
     7     3    27 1   
     8     4     5 ar  
     9     4     7 1   
    10     5     6 ar  
    11     5    10 1   
    12     6    28 1   
    13     7     8 1   
    14     7    29 1   
    15     7    30 1   
    16     8     9 1   
    17     8    24 1   
    18     8    25 1   
    19     9    10 1   
    20     9    31 1   
    21     9    32 1   
    22    10    12 1   
    23    10    15 1   
    24    11    19 ar  
    25    11    23 ar  
    26    12    13 1   
    27    12    16 2   
    28    13    14 1   
    29    13    17 1   
    30    14    15 2   
    31    14    18 1   
    32    17    33 1   
    33    17    34 1   
    34    17    35 1   
    35    18    36 1   
    36    18    37 1   
    37    18    47 1   
    38    19    20 ar  
    39    19    38 1   
    40    20    21 ar  
    41    21    22 ar  
    42    21    39 1   
    43    22    23 ar  
    44    23    40 1   
    45    24    41 1   
    46    24    42 1   
    47    24    43 1   
    48    25    44 1   
    49    25    45 1   
    50    25    46 1   
@<TRIPOS>SUBSTRUCTURE
     1 1M7         1 TEMP              0 ****  ****    0 ROOT
