@<TRIPOS>MOLECULE
molecule
   47    50     1     0     0
SMALL
bcc


@<TRIPOS>ATOM
      1 C1           0.0000     0.0000     0.0000 cp         1 1M7      -0.018000
      2 C2           1.3930     0.0000     0.0000 ca         1 1M7      -0.087000
      3 C3           2.0740     0.0000     1.1980 ca         1 1M7      -0.115000
      4 C4           1.3860     0.0000     2.4060 ca         1 1M7      -0.030300
      5 C5           0.0070     0.0070     2.4100 ca         1 1M7      -0.084300
      6 C6          -0.6860     0.0110     1.2090 ca         1 1M7      -0.118000
      7 C7           2.1970    -0.0130     3.6750 c3         1 1M7      -0.034100
      8 C8           1.3500     0.4370     4.8630 c3         1 1M7      -0.065000
      9 C9           0.0580    -0.3900     4.8780 c3         1 1M7      -0.045400
     10 C10         -0.7930     0.0230     3.6840 c3         1 1M7       0.099500
     11 C11         -0.7460    -0.0030    -1.2840 cp         1 1M7      -0.300600
     12 C12         -1.9930    -0.8880     3.5560 c          1 1M7       0.695500
     13 N13         -3.0630    -0.0760     3.7000 n          1 1M7      -0.437300
     14 C14         -2.6620     1.2220     3.9010 c2         1 1M7       0.434800
     15 N15         -1.3710     1.3550     3.9030 n2         1 1M7      -0.510900
     16 O16         -1.9950    -2.0860     3.3660 o          1 1M7      -0.495500
     17 C17         -4.4590    -0.5200     3.6500 c3         1 1M7       0.071300
     18 N18         -3.5350     2.2680     4.0800 nz         1 1M7      -0.722600
     19 C19         -2.1430     0.0030    -1.3010 ca         1 1M7       0.468200
     20 N20         -2.7690    -0.0000    -2.4650 nb         1 1M7      -0.725000
     21 C21         -2.0940    -0.0100    -3.5970 ca         1 1M7       0.693900
     22 N22         -0.7750    -0.0160    -3.6250 nb         1 1M7      -0.725000
     23 C23         -0.0720    -0.0070    -2.5060 ca         1 1M7       0.468200
     24 C24          2.1260     0.2120     6.1620 c3         1 1M7      -0.082600
     25 C25          1.0080     1.9220     4.7180 c3         1 1M7      -0.082600
     26 H1           1.9390    -0.0080    -0.9360 ha         1 1M7       0.150000
     27 H2           3.1570    -0.0000     1.1990 ha         1 1M7       0.153000
     28 H3          -1.7700     0.0110     1.2120 ha         1 1M7       0.117000
     29 H4           2.5560    -1.0180     3.8560 hc         1 1M7       0.072700
     30 H5           3.0400     0.6590     3.5650 hc         1 1M7       0.072700
     31 H6          -0.4860    -0.1980     5.7950 hc         1 1M7       0.073700
     32 H7           0.3000    -1.4430     4.8050 hc         1 1M7       0.073700
     33 H8          -4.9310    -0.3360     4.6070 h1         1 1M7       0.070033
     34 H9          -4.4920    -1.5800     3.4290 h1         1 1M7       0.070033
     35 H10         -4.9840     0.0270     2.8760 h1         1 1M7       0.070033
     36 H11         -4.0550     2.1280     4.9230 hn         1 1M7       0.478800
     37 H12         -3.0210     3.1240     4.1420 hn         1 1M7       0.478800
     38 H13         -2.7050     0.0110    -0.3740 h4         1 1M7       0.025600
     39 H14         -2.6390    -0.0150    -4.5330 h5         1 1M7       0.073100
     40 H15          1.0110    -0.0130    -2.5370 h4         1 1M7       0.025600
     41 H16          3.0680     0.7440     6.1170 hc         1 1M7       0.044033
     42 H17          1.5430     0.5790     6.9980 hc         1 1M7       0.044033
     43 H18          2.3140    -0.8470     6.2900 hc         1 1M7       0.044033
     44 H19          0.2150     2.1790     5.4100 hc         1 1M7       0.044033
     45 H20          1.8860     2.5180     4.9370 hc         1 1M7       0.044033
     46 H21          0.6810     2.1200     3.7050 hc         1 1M7       0.044033
     47 H183        -4.1850     2.2940     3.3190 hn         1 1M7       0.478800
@<TRIPOS>BOND
     1    16    12 2   
     2    24     8 1   
     3    12    13 1   
     4    12    10 1   
     5    17    13 1   
     6     9     8 1   
     7     9    10 1   
     8     7     8 1   
     9     7     4 1   
    10     8    25 1   
    11    13    14 1   
    12    10     5 1   
    13    10    15 1   
    14     4     3 ar  
    15     4     5 ar  
    16     3     2 ar  
    17     5     6 ar  
    18     2     1 ar  
    19     6     1 ar  
    20    19    20 ar  
    21    19    11 ar  
    22    14    15 2   
    23    14    18 1   
    24     1    11 1   
    25    20    21 ar  
    26    11    23 ar  
    27    21    22 ar  
    28    23    22 ar  
    29     2    26 1   
    30     3    27 1   
    31     6    28 1   
    32     7    29 1   
    33     7    30 1   
    34     9    31 1   
    35     9    32 1   
    36    17    33 1   
    37    17    34 1   
    38    17    35 1   
    39    18    36 1   
    40    18    37 1   
    41    19    38 1   
    42    21    39 1   
    43    23    40 1   
    44    24    41 1   
    45    24    42 1   
    46    24    43 1   
    47    25    44 1   
    48    25    45 1   
    49    25    46 1   
    50    47    18 1   
@<TRIPOS>SUBSTRUCTURE
     1 1M7         1 TEMP              0 ****  ****    0 ROOT
