@<TRIPOS>MOLECULE
1M8
   48    51     1     0     0
SMALL
bcc


@<TRIPOS>ATOM
      1 C1           0.4310    -1.0010     0.4000 ca         1 1M8      -0.088000
      2 C2           1.8130    -0.7940     0.4140 ca         1 1M8      -0.181600
      3 C3           2.4370    -0.1290     1.4760 ca         1 1M8      -0.136000
      4 C4           1.6550     0.3260     2.5310 ca         1 1M8      -0.096000
      5 C5           0.2670     0.1620     2.5390 ca         1 1M8      -0.065300
      6 C6          -0.3730    -0.5000     1.4510 ca         1 1M8       0.094600
      7 C7          -0.5130     0.6770     3.6900 c3         1 1M8      -0.076800
      8 N8          -1.7590    -0.6620     1.4510 ns         1 1M8      -0.472100
      9 C9           2.5860    -1.3380    -0.7040 c          1 1M8       0.591700
     10 N10          3.5670    -0.3460    -1.3380 ny         1 1M8      -0.650800
     11 O11          2.5640    -2.4420    -1.2190 o          1 1M8      -0.403100
     12 C12          3.1000     0.0750    -2.6680 cx         1 1M8      -0.000500
     13 C13          2.2830     1.3370    -2.8540 cx         1 1M8      -0.100900
     14 C14          3.6950     1.2900    -3.3490 cx         1 1M8      -0.100900
     15 C15         -2.5630    -0.8880     0.3230 c          1 1M8       0.734700
     16 C16         -4.0030    -0.9780     0.5710 cc         1 1M8      -0.272700
     17 C17         -4.7020    -0.3110     1.5770 cd         1 1M8      -0.116000
     18 C18         -6.0850    -0.5970     1.5260 cd         1 1M8      -0.159000
     19 C19         -6.4000    -1.4780     0.4870 cc         1 1M8      -0.060100
     20 S20         -5.0290    -1.8890    -0.3730 ss         1 1M8       0.236200
     21 O21         -2.0570    -1.0110    -0.8080 o          1 1M8      -0.599100
     22 C22         -7.7250    -1.9700     0.1860 ca         1 1M8      -0.011000
     23 C23         -8.8050    -1.6440     1.0260 ca         1 1M8      -0.099000
     24 C24        -10.0920    -2.0980     0.7540 ca         1 1M8      -0.120000
     25 C25        -10.3360    -2.8920    -0.3660 ca         1 1M8      -0.106000
     26 C26         -9.2850    -3.2350    -1.2120 ca         1 1M8      -0.113000
     27 C27         -7.9920    -2.7800    -0.9360 ca         1 1M8       0.009400
     28 Cl1         -6.7410    -3.2400    -2.0020 cl         1 1M8      -0.073400
     29 H1          -0.0270    -1.5580    -0.4390 ha         1 1M8       0.196000
     30 H2           3.5280     0.0020     1.5130 ha         1 1M8       0.133000
     31 H3           2.1420     0.8300     3.3840 ha         1 1M8       0.161000
     32 H4          -1.0180    -0.1650     4.2300 hc         1 1M8       0.065367
     33 H5           0.1460     1.2060     4.4220 hc         1 1M8       0.065367
     34 H6          -1.2960     1.4010     3.3460 hc         1 1M8       0.065367
     35 H7          -2.2230    -0.5310     2.3240 hn         1 1M8       0.336500
     36 H8           4.4820    -0.7990    -1.4520 hn         1 1M8       0.454300
     37 H9           2.8530    -0.8260    -3.2810 hx         1 1M8       0.154700
     38 H10          1.4420     1.2950    -3.5750 hc         1 1M8       0.110450
     39 H11          2.0380     1.9740    -1.9830 hc         1 1M8       0.110450
     40 H12          4.4650     1.8950    -2.8340 hc         1 1M8       0.110450
     41 H13          3.8970     1.2150    -4.4360 hc         1 1M8       0.110450
     42 H14         -4.2680     0.3750     2.3090 ha         1 1M8       0.147000
     43 H15         -6.8050    -0.1650     2.2240 ha         1 1M8       0.165000
     44 H16         -8.6340    -1.0210     1.9170 ha         1 1M8       0.142000
     45 H17        -10.9200    -1.8270     1.4280 ha         1 1M8       0.148000
     46 H18        -11.3540    -3.2500    -0.5820 ha         1 1M8       0.150000
     47 H19         -9.4710    -3.8640    -2.0980 ha         1 1M8       0.157000
     48 H102         3.6690     0.4700    -0.7250 hn         1 1M8       0.454300
@<TRIPOS>BOND
     1     1     2 ar  
     2     1     6 ar  
     3     1    29 1   
     4     2     3 ar  
     5     2     9 1   
     6     3     4 ar  
     7     3    30 1   
     8     4     5 ar  
     9     4    31 1   
    10     5     6 ar  
    11     5     7 1   
    12     6     8 1   
    13     7    32 1   
    14     7    33 1   
    15     7    34 1   
    16     8    15 1   
    17     8    35 1   
    18     9    10 1   
    19     9    11 2   
    20    10    12 1   
    21    10    36 1   
    22    10    48 1   
    23    12    13 1   
    24    12    14 1   
    25    12    37 1   
    26    13    14 1   
    27    13    38 1   
    28    13    39 1   
    29    14    40 1   
    30    14    41 1   
    31    15    16 1   
    32    15    21 2   
    33    16    17 2   
    34    16    20 1   
    35    17    18 1   
    36    17    42 1   
    37    18    19 2   
    38    18    43 1   
    39    19    20 1   
    40    19    22 1   
    41    22    23 ar  
    42    22    27 ar  
    43    23    24 ar  
    44    23    44 1   
    45    24    25 ar  
    46    24    45 1   
    47    25    26 ar  
    48    25    46 1   
    49    26    27 ar  
    50    26    47 1   
    51    27    28 1   
@<TRIPOS>SUBSTRUCTURE
     1 1M8         1 TEMP              0 ****  ****    0 ROOT
