@<TRIPOS>MOLECULE
molecule
   47    50     1     0     0
SMALL
bcc


@<TRIPOS>ATOM
      1 C1           0.0000     0.0000     0.0000 ca         1 1M8      -0.073000
      2 C2           1.3950     0.0000     0.0000 ca         1 1M8      -0.132600
      3 C3           2.0880     0.0000     1.2120 ca         1 1M8      -0.125000
      4 C4           1.3940    -0.0000     2.4040 ca         1 1M8      -0.118000
      5 C5           0.0120    -0.0000     2.4040 ca         1 1M8      -0.099300
      6 C6          -0.6890     0.0060     1.2040 ca         1 1M8       0.050600
      7 C7          -0.7390    -0.0020     3.7120 c3         1 1M8      -0.050800
      8 N8          -2.0870     0.0050     1.2100 ns         1 1M8      -0.469100
      9 C9           2.1360     0.0010    -1.2790 c          1 1M8       0.678700
     10 N10          3.4840     0.0010    -1.2780 ns         1 1M8      -0.553900
     11 O11          1.5300    -0.0010    -2.3330 o          1 1M8      -0.597100
     12 C12          4.2180     0.0000    -2.5450 cx         1 1M8       0.063700
     13 C13          5.6370     0.5720    -2.5380 cx         1 1M8      -0.159400
     14 C14          5.4210    -0.9380    -2.6640 cx         1 1M8      -0.159400
     15 C15         -2.7650    -0.4910     0.1560 c          1 1M8       0.704700
     16 C16         -4.2250    -0.3820     0.1080 cc         1 1M8      -0.117700
     17 C17         -5.0160    -0.8510    -0.9030 cd         1 1M8      -0.071000
     18 C18         -6.3550    -0.6340    -0.7290 cd         1 1M8      -0.148000
     19 C19         -6.6840     0.0140     0.4250 cc         1 1M8       0.035900
     20 S20         -5.2260     0.3650     1.3450 ss         1 1M8      -0.131800
     21 O21         -2.1640    -1.0290    -0.7560 o          1 1M8      -0.575100
     22 C22         -8.0580     0.3650     0.8430 ca         1 1M8      -0.015000
     23 C23         -8.5050     0.0410     2.1250 ca         1 1M8      -0.106000
     24 C24         -9.7890     0.3720     2.5090 ca         1 1M8      -0.126000
     25 C25        -10.6320     1.0240     1.6260 ca         1 1M8      -0.112000
     26 C26        -10.1950     1.3480     0.3540 ca         1 1M8      -0.121000
     27 C27         -8.9120     1.0290    -0.0420 ca         1 1M8       0.045400
     28 Cl1         -8.3630     1.4430    -1.6360 cl         1 1M8      -0.093400
     29 H1          -0.5430     0.0020    -0.9370 ha         1 1M8       0.198000
     30 H2           3.1720     0.0000     1.2160 ha         1 1M8       0.123000
     31 H3           1.9340    -0.0020     3.3430 ha         1 1M8       0.134000
     32 H4          -1.3040     0.9170     3.8050 hc         1 1M8       0.045367
     33 H5          -0.0350    -0.0780     4.5320 hc         1 1M8       0.045367
     34 H6          -1.4160    -0.8470     3.7380 hc         1 1M8       0.045367
     35 H7          -2.5840     0.4130     1.9770 hn         1 1M8       0.326500
     36 H8           3.9830     0.0210    -0.4100 hn         1 1M8       0.316500
     37 H9           3.6710     0.1560    -3.4670 h1         1 1M8       0.125700
     38 H10          5.9420     1.0780    -3.4460 hc         1 1M8       0.076700
     39 H11          5.9990     0.9140    -1.5760 hc         1 1M8       0.076700
     40 H12          5.6510    -1.5180    -1.7780 hc         1 1M8       0.076700
     41 H13          5.5940    -1.3550    -3.6490 hc         1 1M8       0.076700
     42 H14         -4.6140    -1.3540    -1.7740 ha         1 1M8       0.175000
     43 H15         -7.0970    -0.9510    -1.4520 ha         1 1M8       0.166000
     44 H16         -7.8460    -0.4690     2.8170 ha         1 1M8       0.143000
     45 H17        -10.1370     0.1210     3.5030 ha         1 1M8       0.138000
     46 H18        -11.6390     1.2790     1.9320 ha         1 1M8       0.139000
     47 H19        -10.8600     1.8600    -0.3310 ha         1 1M8       0.148000
@<TRIPOS>BOND
     1     4     3 ar
     2     4     5 ar
     3     3     2 ar
     4    14    13 1
     5    14    12 1
     6     7     5 1
     7     5     6 ar
     8    10    12 1
     9    10     9 1
    10    13    12 1
    11     2     9 1
    12     2     1 ar
    13     9    11 2
    14     6     1 ar
    15     6     8 1
    16     8    15 1
    17    15    21 2
    18    15    16 1
    19    17    16 2
    20    17    18 1
    21    16    20 1
    22    18    19 2
    23    20    19 1
    24    19    22 1
    25    22    23 ar
    26    22    27 ar
    27    23    24 ar
    28    28    27 1
    29    27    26 ar
    30    24    25 ar
    31    26    25 ar
    32     1    29 1
    33     3    30 1
    34     4    31 1
    35     7    32 1
    36     7    33 1
    37     7    34 1
    38     8    35 1
    39    10    36 1
    40    12    37 1
    41    13    38 1
    42    13    39 1
    43    14    40 1
    44    14    41 1
    45    17    42 1
    46    18    43 1
    47    23    44 1
    48    24    45 1
    49    25    46 1
    50    26    47 1
@<TRIPOS>SUBSTRUCTURE
     1 1M8         1 TEMP              0 ****  ****    0 ROOT
