@<TRIPOS>MOLECULE
molecule
   60    62     1     0     0
SMALL
bcc


@<TRIPOS>ATOM
      1 C1           0.0000     0.0000     0.0000 c3         1 1M9      -0.070900
      2 C2           1.5300     0.0000     0.0000 c3         1 1M9      -0.075900
      3 C3           2.0400     0.0000     1.4410 c3         1 1M9      -0.074700
      4 C4           1.5310    -1.2490     2.1630 c3         1 1M9      -0.075900
      5 C5           0.0010    -1.2490     2.1630 c3         1 1M9      -0.070900
      6 C6          -0.5100    -1.2490     0.7210 c3         1 1M9      -0.135700
      7 C7          -2.0160    -1.2490     0.7210 c          1 1M9       0.706100
      8 O8          -2.6230    -0.2280     0.4730 o          1 1M9      -0.609100
      9 C9          -1.9640    -3.5840     1.4150 c3         1 1M9       0.113700
     10 N10         -2.6910    -2.3830     0.9970 n          1 1M9      -0.372000
     11 C11         -4.0800    -2.4130     0.8840 ca         1 1M9       0.087600
     12 C12         -4.6800    -2.6310    -0.3660 ca         1 1M9      -0.087600
     13 C13         -6.0740    -2.6660    -0.4660 ca         1 1M9      -0.097000
     14 C14         -6.8500    -2.4850     0.6640 ca         1 1M9       0.044100
     15 C15         -6.2490    -2.2700     1.8990 ca         1 1M9      -0.148000
     16 C16         -4.8740    -2.2340     2.0090 ca         1 1M9      -0.144000
     17 C17         -3.8460    -2.8220    -1.5650 c          1 1M9       0.887200
     18 O18         -2.6390    -2.6940    -1.4920 o          1 1M9      -0.829800
     19 O19         -4.4200    -3.1380    -2.7420 o          1 1M9      -0.829800
     20 O20         -8.2050    -2.5180     0.5670 os         1 1M9      -0.235200
     21 C21         -8.8080    -3.7310     0.4530 ca         1 1M9       0.202100
     22 C22         -8.0540    -4.8920     0.5470 ca         1 1M9      -0.202000
     23 C23         -8.6690    -6.1240     0.4310 ca         1 1M9      -0.067000
     24 C24        -10.0340    -6.2010     0.2220 ca         1 1M9      -0.187000
     25 C25        -10.7870    -5.0450     0.1270 ca         1 1M9      -0.061000
     26 C26        -10.1780    -3.8110     0.2480 ca         1 1M9      -0.223300
     27 C27        -11.0000    -2.5520     0.1450 c3         1 1M9       0.683200
     28 C28          3.5700     0.0000     1.4410 c3         1 1M9      -0.088100
     29 C29         -2.5170    -4.0760     2.7530 c3         1 1M9      -0.110600
     30 C30         -2.1360    -4.6790     0.3590 c3         1 1M9      -0.110600
     31 F31        -12.3400    -2.8860    -0.0720 f          1 1M9      -0.226967
     32 F32        -10.8870    -1.8220     1.3350 f          1 1M9      -0.226967
     33 F33        -10.5330    -1.7760    -0.9220 f          1 1M9      -0.226967
     34 H1          -0.3600     0.8840     0.5130 hc         1 1M9       0.053700
     35 H2          -0.3600    -0.0020    -1.0220 hc         1 1M9       0.053700
     36 H3           1.8900    -0.8860    -0.5090 hc         1 1M9       0.036200
     37 H4           1.8900     0.8860    -0.5090 hc         1 1M9       0.036200
     38 H5           1.6740     0.8830     1.9510 hc         1 1M9       0.048700
     39 H6           1.8910    -1.2460     3.1850 hc         1 1M9       0.036200
     40 H7           1.8910    -2.1330     1.6500 hc         1 1M9       0.036200
     41 H8          -0.3590    -2.1350     2.6720 hc         1 1M9       0.053700
     42 H9          -0.3590    -0.3630     2.6720 hc         1 1M9       0.053700
     43 H10         -0.1440    -2.1320     0.2100 hc         1 1M9       0.078700
     44 H11         -0.9120    -3.3490     1.5230 h1         1 1M9       0.058700
     45 H12         -6.5450    -2.8330    -1.4270 ha         1 1M9       0.174000
     46 H13         -6.8630    -2.1300     2.7800 ha         1 1M9       0.124000
     47 H14         -4.4130    -2.0660     2.9740 ha         1 1M9       0.124000
     48 H16         -6.9850    -4.8330     0.7100 ha         1 1M9       0.167000
     49 H17         -8.0810    -7.0310     0.5050 ha         1 1M9       0.131000
     50 H18        -10.5130    -7.1680     0.1290 ha         1 1M9       0.126000
     51 H19        -11.8560    -5.1070    -0.0350 ha         1 1M9       0.141000
     52 H20          3.9310     0.8840     0.9300 hc         1 1M9       0.027367
     53 H21          3.9310    -0.8850     0.9310 hc         1 1M9       0.027367
     54 H22          3.9310     0.0000     2.4630 hc         1 1M9       0.027367
     55 H23         -3.4460    -4.6080     2.5860 hc         1 1M9       0.041367
     56 H24         -1.8000    -4.7410     3.2180 hc         1 1M9       0.041367
     57 H25         -2.6990    -3.2290     3.4030 hc         1 1M9       0.041367
     58 H26         -1.6590    -5.5890     0.7020 hc         1 1M9       0.041367
     59 H27         -3.1910    -4.8620     0.1970 hc         1 1M9       0.041367
     60 H28         -1.6780    -4.3600    -0.5700 hc         1 1M9       0.041367
@<TRIPOS>BOND
     1    32    27 1   
     2    28     3 1   
     3    31    27 1   
     4    33    27 1   
     5    27    26 1   
     6     3     2 1   
     7     3     4 1   
     8     2     1 1   
     9     4     5 1   
    10    26    25 ar  
    11    26    21 ar  
    12    20    21 1   
    13    20    14 1   
    14    25    24 ar  
    15    21    22 ar  
    16     1     6 1   
    17    13    14 ar  
    18    13    12 ar  
    19    14    15 ar  
    20     5     6 1   
    21     6     7 1   
    22    18    17 1   
    23    17    12 1   
    24    17    19 1   
    25    12    11 ar  
    26    15    16 ar  
    27    24    23 ar  
    28    22    23 ar  
    29    11    16 ar  
    30    11    10 1   
    31     7    10 1   
    32     7     8 2   
    33    10     9 1   
    34     9    29 1   
    35     9    30 1   
    36     1    34 1   
    37     1    35 1   
    38     2    36 1   
    39     2    37 1   
    40     3    38 1   
    41     4    39 1   
    42     4    40 1   
    43     5    41 1   
    44     5    42 1   
    45     6    43 1   
    46     9    44 1   
    47    13    45 1   
    48    15    46 1   
    49    16    47 1   
    50    22    48 1   
    51    23    49 1   
    52    24    50 1   
    53    25    51 1   
    54    28    52 1   
    55    28    53 1   
    56    28    54 1   
    57    29    55 1   
    58    29    56 1   
    59    29    57 1   
    60    30    58 1   
    61    30    59 1   
    62    30    60 1   
@<TRIPOS>SUBSTRUCTURE
     1 1M9         1 TEMP              0 ****  ****    0 ROOT
