@<TRIPOS>MOLECULE
1M9
   60    62     1     0     0
SMALL
bcc


@<TRIPOS>ATOM
      1 C1          -0.2230     0.1780    -0.1080 c3         1 1M9      -0.065400
      2 C2           1.2770     0.2190    -0.3090 c3         1 1M9      -0.071400
      3 C3           2.0190     0.0530     1.0090 c3         1 1M9      -0.066700
      4 C4           1.5930    -1.2390     1.6920 c3         1 1M9      -0.071400
      5 C5           0.0930    -1.2830     1.8970 c3         1 1M9      -0.065400
      6 C6          -0.6390    -1.1180     0.5750 c3         1 1M9      -0.142700
      7 C7          -2.1440    -1.1110     0.8070 c          1 1M9       0.691100
      8 O8          -2.7910    -0.0420     0.8630 o          1 1M9      -0.644100
      9 C9          -4.2770    -2.3220     1.0240 c3         1 1M9       0.117700
     10 N10         -2.8170    -2.3180     0.9700 n          1 1M9      -0.390000
     11 C11         -2.1400    -3.5640     1.0680 ca         1 1M9       0.057600
     12 C12         -1.6840    -4.2630    -0.0730 ca         1 1M9      -0.100600
     13 C13         -1.0420    -5.4940     0.0800 ca         1 1M9      -0.126000
     14 C14         -0.8800    -6.0400     1.3540 ca         1 1M9       0.052100
     15 C15         -1.3270    -5.3700     2.4980 ca         1 1M9      -0.151000
     16 C16         -1.9430    -4.1330     2.3490 ca         1 1M9      -0.141000
     17 C17         -1.8810    -3.7460    -1.5000 c          1 1M9       0.917200
     18 O18         -2.9000    -4.1530    -2.1190 o          1 1M9      -0.810300
     19 O19         -0.9990    -2.9770    -1.9650 o          1 1M9      -0.810300
     20 O20         -0.1570    -7.2280     1.5520 os         1 1M9      -0.244200
     21 C21         -0.7400    -8.3920     1.0990 ca         1 1M9       0.193100
     22 C22         -1.9500    -8.4460     0.3860 ca         1 1M9      -0.192000
     23 C23         -2.4430    -9.6740    -0.0360 ca         1 1M9      -0.067000
     24 C24         -1.7480   -10.8540     0.2460 ca         1 1M9      -0.185000
     25 C25         -0.5540   -10.8030     0.9550 ca         1 1M9      -0.063000
     26 C26         -0.0390    -9.5790     1.3910 ca         1 1M9      -0.217300
     27 C27          1.2640    -9.5380     2.1710 c3         1 1M9       0.705200
     28 C28          3.5150     0.0680     0.7850 c3         1 1M9      -0.087100
     29 C29         -4.9060    -3.5660     0.4000 c3         1 1M9      -0.117100
     30 C30         -4.8190    -2.1460     2.4460 c3         1 1M9      -0.117100
     31 F31          1.8360   -10.7720     2.3940 f          1 1M9      -0.242633
     32 F32          2.2750    -8.8230     1.5790 f          1 1M9      -0.242633
     33 F33          1.1630    -9.0070     3.4340 f          1 1M9      -0.242633
     34 H1          -0.7400     0.2470    -1.1000 hc         1 1M9       0.046950
     35 H2          -0.5550     1.0520     0.5110 hc         1 1M9       0.046950
     36 H3           1.5640     1.1950    -0.7780 hc         1 1M9       0.039950
     37 H4           1.5800    -0.6000    -1.0140 hc         1 1M9       0.039950
     38 H5           1.7460     0.9150     1.6810 hc         1 1M9       0.037700
     39 H6           2.1100    -1.3270     2.6820 hc         1 1M9       0.039950
     40 H7           1.9100    -2.1130     1.0640 hc         1 1M9       0.039950
     41 H8          -0.2150    -0.4660     2.6010 hc         1 1M9       0.046950
     42 H9          -0.1920    -2.2630     2.3640 hc         1 1M9       0.046950
     43 H10         -0.3840    -1.9770    -0.1230 hc         1 1M9       0.137700
     44 H11         -4.6140    -1.4230     0.4200 h1         1 1M9       0.075700
     45 H12         -0.6770    -6.0270    -0.8100 ha         1 1M9       0.155000
     46 H13         -1.1780    -5.8120     3.4910 ha         1 1M9       0.135000
     47 H14         -2.2890    -3.5990     3.2470 ha         1 1M9       0.130000
     48 H16         -2.4940    -7.5150     0.1560 ha         1 1M9       0.179000
     49 H17         -3.3870    -9.7140    -0.6010 ha         1 1M9       0.139000
     50 H18         -2.1440   -11.8210    -0.0950 ha         1 1M9       0.131000
     51 H19         -0.0020   -11.7300     1.1790 ha         1 1M9       0.142000
     52 H20          3.8210    -0.7760     0.1200 hc         1 1M9       0.026367
     53 H21          3.8260     1.0260     0.3050 hc         1 1M9       0.026367
     54 H22          4.0560    -0.0360     1.7570 hc         1 1M9       0.026367
     55 H23         -6.0020    -3.3920     0.2880 hc         1 1M9       0.041867
     56 H24         -4.7500    -4.4590     1.0510 hc         1 1M9       0.041867
     57 H25         -4.4610    -3.7760    -0.6100 hc         1 1M9       0.041867
     58 H26         -4.4440    -1.1930     2.8910 hc         1 1M9       0.041867
     59 H27         -5.9330    -2.1090     2.4040 hc         1 1M9       0.041867
     60 H28         -4.5140    -2.9960     3.1010 hc         1 1M9       0.041867
@<TRIPOS>BOND
     1     1     2 1   
     2     1     6 1   
     3     1    34 1   
     4     1    35 1   
     5     2     3 1   
     6     2    36 1   
     7     2    37 1   
     8     3     4 1   
     9     3    28 1   
    10     3    38 1   
    11     4     5 1   
    12     4    39 1   
    13     4    40 1   
    14     5     6 1   
    15     5    41 1   
    16     5    42 1   
    17     6     7 1   
    18     6    43 1   
    19     7     8 2   
    20     7    10 1   
    21     9    10 1   
    22     9    29 1   
    23     9    30 1   
    24     9    44 1   
    25    10    11 1   
    26    11    12 ar  
    27    11    16 ar  
    28    12    13 ar  
    29    12    17 1   
    30    13    14 ar  
    31    13    45 1   
    32    14    15 ar  
    33    14    20 1   
    34    15    16 ar  
    35    15    46 1   
    36    16    47 1   
    37    17    18 1   
    38    17    19 1   
    39    20    21 1   
    40    21    22 ar  
    41    21    26 ar  
    42    22    23 ar  
    43    22    48 1   
    44    23    24 ar  
    45    23    49 1   
    46    24    25 ar  
    47    24    50 1   
    48    25    26 ar  
    49    25    51 1   
    50    26    27 1   
    51    27    31 1   
    52    27    32 1   
    53    27    33 1   
    54    28    52 1   
    55    28    53 1   
    56    28    54 1   
    57    29    55 1   
    58    29    56 1   
    59    29    57 1   
    60    30    58 1   
    61    30    59 1   
    62    30    60 1   
@<TRIPOS>SUBSTRUCTURE
     1 1M9         1 TEMP              0 ****  ****    0 ROOT
