@<TRIPOS>MOLECULE
1MB
   43    46     1     0     0
SMALL
bcc


@<TRIPOS>ATOM
      1 C1          -0.4530     0.9200    -0.3310 ca         1 1MB       0.165900
      2 C2           0.8170     1.2850    -0.8090 ca         1 1MB      -0.204000
      3 C3           1.9490     0.9680    -0.0410 ca         1 1MB       0.168900
      4 C4           1.8140     0.2960     1.1900 ca         1 1MB      -0.178000
      5 C5           0.5480    -0.0520     1.6430 ca         1 1MB      -0.061000
      6 C6          -0.5980     0.2540     0.9050 ca         1 1MB      -0.178300
      7 C7          -1.9620    -0.0970     1.4260 c3         1 1MB       0.266100
      8 N8          -3.3670    -2.7890    -0.6780 nc         1 1MB      -0.670100
      9 C9          -2.9540    -1.6570    -0.1860 cd         1 1MB       0.671100
     10 N10         -2.4170    -1.4280     1.0890 na         1 1MB      -0.638000
     11 C11         -2.2290    -2.5370     1.9290 ca         1 1MB       0.188600
     12 C12         -2.6560    -3.8160     1.4690 ca         1 1MB      -0.211600
     13 C13         -2.5130    -4.9460     2.2790 ca         1 1MB      -0.027000
     14 C14         -1.9470    -4.8110     3.5450 ca         1 1MB       0.056100
     15 C15         -1.5260    -3.5620     4.0230 ca         1 1MB      -0.064000
     16 C16         -1.6560    -2.4390     3.2200 ca         1 1MB      -0.189000
     17 C17         -3.2580    -3.9620     0.1150 c          1 1MB       0.701100
     18 O18         -3.6480    -5.0580    -0.3140 o          1 1MB      -0.525100
     19 F19         -0.1390    -8.3720     4.7890 f          1 1MB      -0.233300
     20 O20         -1.6560    -5.9240     4.3400 os         1 1MB      -0.353400
     21 C21         -2.7160    -6.6660     4.8320 ca         1 1MB       0.671600
     22 N22         -4.0050    -6.3330     4.5590 nb         1 1MB      -0.712000
     23 C23         -4.9580    -7.1220     5.0820 ca         1 1MB       0.461200
     24 C24         -4.6950    -8.2500     5.8820 ca         1 1MB      -0.285300
     25 C25         -3.3670    -8.5760     6.1550 ca         1 1MB      -0.018000
     26 C26         -2.3440    -7.7810     5.6310 ca         1 1MB      -0.310600
     27 C27         -0.8850    -8.0960     5.9070 c3         1 1MB       0.710200
     28 F28          3.1770     1.3120    -0.4890 f          1 1MB      -0.125900
     29 F29         -0.6880    -9.1920     6.7150 f          1 1MB      -0.233300
     30 F30         -0.1970    -7.0920     6.5420 f          1 1MB      -0.233300
     31 F31         -1.5450     1.2220    -1.0740 f          1 1MB      -0.136900
     32 H1           0.9200     1.8060    -1.7710 ha         1 1MB       0.172000
     33 H2           2.7120     0.0500     1.7770 ha         1 1MB       0.161000
     34 H3           0.4460    -0.5830     2.6040 ha         1 1MB       0.148000
     35 H4          -2.7100     0.6360     0.9980 h1         1 1MB       0.076700
     36 H5          -1.9770     0.0280     2.5460 h1         1 1MB       0.076700
     37 H6          -3.0360    -0.7480    -0.8290 h5         1 1MB       0.062800
     38 H7          -2.8560    -5.9260     1.9040 ha         1 1MB       0.180000
     39 H8          -1.0810    -3.4840     5.0280 ha         1 1MB       0.156000
     40 H9          -1.3050    -1.4750     3.6150 ha         1 1MB       0.138000
     41 H10         -5.9960    -6.8250     4.8390 h4         1 1MB       0.036100
     42 H11         -5.5190    -8.8570     6.2770 ha         1 1MB       0.158000
     43 H12         -3.1160    -9.4510     6.7770 ha         1 1MB       0.163000
@<TRIPOS>BOND
     1     1     2 ar  
     2     1     6 ar  
     3     1    31 1   
     4     2     3 ar  
     5     2    32 1   
     6     3     4 ar  
     7     3    28 1   
     8     4     5 ar  
     9     4    33 1   
    10     5     6 ar  
    11     5    34 1   
    12     6     7 1   
    13     7    10 1   
    14     7    35 1   
    15     7    36 1   
    16     8     9 2   
    17     8    17 1   
    18     9    10 1   
    19     9    37 1   
    20    10    11 1   
    21    11    12 ar  
    22    11    16 ar  
    23    12    13 ar  
    24    12    17 1   
    25    13    14 ar  
    26    13    38 1   
    27    14    15 ar  
    28    14    20 1   
    29    15    16 ar  
    30    15    39 1   
    31    16    40 1   
    32    17    18 2   
    33    19    27 1   
    34    20    21 1   
    35    21    22 ar  
    36    21    26 ar  
    37    22    23 ar  
    38    23    24 ar  
    39    23    41 1   
    40    24    25 ar  
    41    24    42 1   
    42    25    26 ar  
    43    25    43 1   
    44    26    27 1   
    45    27    29 1   
    46    27    30 1   
@<TRIPOS>SUBSTRUCTURE
     1 1MB         1 TEMP              0 ****  ****    0 ROOT
