@<TRIPOS>MOLECULE
1MB
   43    46     1     0     0
SMALL
bcc


@<TRIPOS>ATOM
      1 C1           0.0000     0.0000     0.0000 ca         1 1MB       0.149900
      2 C2           1.3840     0.0000     0.0000 ca         1 1MB      -0.160000
      3 C3           2.0750     0.0000     1.1990 ca         1 1MB       0.148900
      4 C4           1.3810    -0.0010     2.3980 ca         1 1MB      -0.140000
      5 C5          -0.0010    -0.0030     2.3960 ca         1 1MB      -0.032000
      6 C6          -0.6920     0.0040     1.1990 ca         1 1MB      -0.182300
      7 C7          -2.1990     0.0070     1.2000 c3         1 1MB       0.201100
      8 N8          -3.3860    -2.8750    -0.7070 nc         1 1MB      -0.626100
      9 C9          -2.9470    -1.6960    -0.3650 cd         1 1MB       0.521100
     10 N10         -2.6910    -1.3400     0.9070 na         1 1MB      -0.187000
     11 C11         -2.8890    -2.2370     1.9390 ca         1 1MB       0.018600
     12 C12         -3.3630    -3.5240     1.6230 ca         1 1MB      -0.208600
     13 C13         -3.5760    -4.4570     2.6350 ca         1 1MB       0.005000
     14 C14         -3.3180    -4.1060     3.9480 ca         1 1MB       0.072100
     15 C15         -2.8500    -2.8310     4.2570 ca         1 1MB      -0.044000
     16 C16         -2.6360    -1.9020     3.2620 ca         1 1MB      -0.165000
     17 C17         -3.6190    -3.8370     0.2060 c          1 1MB       0.726100
     18 O18         -4.0300    -4.9330    -0.1300 o          1 1MB      -0.570100
     19 F19         -3.8010    -7.7780     8.0910 f          1 1MB      -0.206633
     20 O20         -3.5230    -5.0100     4.9420 os         1 1MB      -0.328400
     21 C21         -2.5990    -5.9880     5.1150 ca         1 1MB       0.673600
     22 N22         -1.5800    -6.0820     4.2760 nb         1 1MB      -0.654000
     23 C23         -0.6580    -7.0180     4.4080 ca         1 1MB       0.484200
     24 C24         -0.7280    -7.9390     5.4330 ca         1 1MB      -0.272300
     25 C25         -1.7810    -7.8750     6.3350 ca         1 1MB       0.026000
     26 C26         -2.7280    -6.8780     6.1740 ca         1 1MB      -0.360600
     27 C27         -3.8890    -6.7680     7.1270 c3         1 1MB       0.660200
     28 F28          3.4260     0.0000     1.2000 f          1 1MB      -0.117900
     29 F29         -5.0880    -6.9030     6.4180 f          1 1MB      -0.206633
     30 F30         -3.8590    -5.5180     7.7570 f          1 1MB      -0.206633
     31 F31         -0.6760     0.0000    -1.1700 f          1 1MB      -0.121900
     32 H1           1.9260    -0.0010    -0.9380 ha         1 1MB       0.141000
     33 H2           1.9220    -0.0040     3.3360 ha         1 1MB       0.128000
     34 H3          -0.5430    -0.0020     3.3340 ha         1 1MB       0.117000
     35 H4          -2.5590     0.3200     2.1730 h1         1 1MB       0.047200
     36 H5          -2.5580     0.6950     0.4440 h1         1 1MB       0.047200
     37 H6          -2.7790    -0.9640    -1.1460 h5         1 1MB       0.015800
     38 H7          -3.9400    -5.4490     2.3960 ha         1 1MB       0.139000
     39 H8          -2.6520    -2.5680     5.2890 ha         1 1MB       0.115000
     40 H9          -2.2720    -0.9120     3.5120 ha         1 1MB       0.120000
     41 H10          0.1620    -7.0640     3.7020 h4         1 1MB      -0.015900
     42 H11          0.0320    -8.7060     5.5330 ha         1 1MB       0.125000
     43 H12         -1.8570    -8.5840     7.1500 ha         1 1MB       0.127000
@<TRIPOS>BOND
     1     1     2 ar  
     2     1     6 ar  
     3     1    31 1   
     4     2     3 ar  
     5     2    32 1   
     6     3     4 ar  
     7     3    28 1   
     8     4     5 ar  
     9     4    33 1   
    10     5     6 ar  
    11     5    34 1   
    12     6     7 1   
    13     7    10 1   
    14     7    35 1   
    15     7    36 1   
    16     8     9 2   
    17     8    17 1   
    18     9    10 1   
    19     9    37 1   
    20    10    11 1   
    21    11    12 ar  
    22    11    16 ar  
    23    12    13 ar  
    24    12    17 1   
    25    13    14 ar  
    26    13    38 1   
    27    14    15 ar  
    28    14    20 1   
    29    15    16 ar  
    30    15    39 1   
    31    16    40 1   
    32    17    18 2   
    33    19    27 1   
    34    20    21 1   
    35    21    22 ar  
    36    21    26 ar  
    37    22    23 ar  
    38    23    24 ar  
    39    23    41 1   
    40    24    25 ar  
    41    24    42 1   
    42    25    26 ar  
    43    25    43 1   
    44    26    27 1   
    45    27    29 1   
    46    27    30 1   
@<TRIPOS>SUBSTRUCTURE
     1 1MB         1 TEMP              0 ****  ****    0 ROOT
