@<TRIPOS>MOLECULE
1MC
   17    17     1     0     0
SMALL
bcc


@<TRIPOS>ATOM
      1 N3          -0.2600    -0.1690     0.0280 nc         1 1MC      -0.623100
      2 C4           1.0360     0.0710     0.0840 cd         1 1MC       0.608500
      3 N1          -0.2630    -0.0200     2.4950 n          1 1MC      -0.326000
      4 CN1         -1.0210    -0.0850     3.7260 c3         1 1MC       0.052300
      5 C2          -0.9820    -0.2270     1.2530 c          1 1MC       0.819900
      6 O2          -2.1970    -0.4470     1.2890 o          1 1MC      -0.497500
      7 N4           1.7700     0.1280    -1.2090 nz         1 1MC      -0.801600
      8 C5           1.7920     0.2820     1.2820 cd         1 1MC      -0.445600
      9 C6           1.0720     0.2220     2.4730 cc         1 1MC       0.123600
     10 H11         -1.4930    -1.1030     3.8110 h1         1 1MC       0.088367
     11 H12         -1.8390     0.6860     3.6930 h1         1 1MC       0.088367
     12 H13         -0.3530     0.1020     4.6060 h1         1 1MC       0.088367
     13 HN41         1.1380    -0.0360    -2.0070 hn         1 1MC       0.479800
     14 HN42         2.5010    -0.5930    -1.2010 hn         1 1MC       0.479800
     15 H5           2.8690     0.4790     1.2900 ha         1 1MC       0.185000
     16 H6           1.5870     0.3750     3.4460 h4         1 1MC       0.200000
     17 H43          2.2010     1.0550    -1.3000 hn         1 1MC       0.479800
@<TRIPOS>BOND
     1     1     2 2   
     2     1     5 1   
     3     2     7 1   
     4     2     8 1   
     5     3     4 1   
     6     3     5 1   
     7     3     9 1   
     8     4    10 1   
     9     4    11 1   
    10     4    12 1   
    11     5     6 2   
    12     7    13 1   
    13     7    14 1   
    14     7    17 1   
    15     8     9 2   
    16     8    15 1   
    17     9    16 1   
@<TRIPOS>SUBSTRUCTURE
     1 1MC         1 TEMP              0 ****  ****    0 ROOT
