@<TRIPOS>MOLECULE
molecule
   17    17     1     0     0
SMALL
bcc


@<TRIPOS>ATOM
      1 N3           0.0000     0.0000     0.0000 nc         1 1MC      -0.629100
      2 C4           1.3260     0.0000     0.0000 cd         1 1MC       0.570500
      3 N1          -0.0440    -0.0010     2.3300 n          1 1MC      -0.313000
      4 CN1         -0.8190    -0.0020     3.5730 c3         1 1MC       0.072300
      5 C2          -0.6800    -0.0050     1.1440 c          1 1MC       0.820900
      6 O2          -1.8990    -0.0060     1.1180 o          1 1MC      -0.530500
      7 N4           2.0180     0.0010    -1.1890 nz         1 1MC      -0.740600
      8 C5           2.0230     0.0000     1.2250 cd         1 1MC      -0.432600
      9 C6           1.3180    -0.0000     2.3800 cc         1 1MC       0.121600
     10 H11         -0.1430     0.0030     4.4200 h1         1 1MC       0.083700
     11 H12         -1.4380    -0.8900     3.6110 h1         1 1MC       0.083700
     12 H13         -1.4480     0.8790     3.6070 h1         1 1MC       0.083700
     13 HN41         1.3710     0.0020    -1.9520 hn         1 1MC       0.477467
     14 HN42         2.5930    -0.8160    -1.2410 hn         1 1MC       0.477467
     15 H5           3.1060     0.0000     1.2420 ha         1 1MC       0.174000
     16 H6           1.8310    -0.0000     3.3340 h4         1 1MC       0.201000
     17 H43          2.5940     0.8180    -1.2390 hn         1 1MC       0.477467
@<TRIPOS>BOND
     1     1     2 2
     2     1     5 1
     3     2     7 1
     4     2     8 1
     5     3     4 1
     6     3     5 1
     7     3     9 1
     8     4    10 1
     9     4    11 1
    10     4    12 1
    11     5     6 2
    12     7    13 1
    13     7    14 1
    14     8     9 2
    15     8    15 1
    16     9    16 1
    17    17     7 1
@<TRIPOS>SUBSTRUCTURE
     1 1MC         1 TEMP              0 ****  ****    0 ROOT
