@<TRIPOS>MOLECULE
1MD
   48    50     1     0     0
SMALL
bcc


@<TRIPOS>ATOM
      1 C1           0.0000     0.0000     0.0000 cp         1 1MD       0.119000
      2 C2           1.3980     0.0000     0.0000 ca         1 1MD      -0.336600
      3 C3           2.0710     0.0000     1.2040 ca         1 1MD       0.428600
      4 N4           1.4200    -0.0000     2.3530 nb         1 1MD      -0.525000
      5 C4          -0.6600     0.0060     1.2450 ca         1 1MD      -0.260900
      6 C6           0.1070     0.0000     2.4120 ca         1 1MD       0.431600
      7 C5          -0.8730    -0.0000     3.5600 c3         1 1MD      -0.002300
      8 N1          -2.2120    -0.0000     2.9580 n          1 1MD      -0.110800
      9 C9          -2.0830     0.0120     1.6200 c          1 1MD       0.653100
     10 C10         -3.4780    -0.0010     3.6930 c3         1 1MD       0.006000
     11 C7          -3.9130     1.4200     3.9460 c          1 1MD       0.562100
     12 C13          3.5780    -0.0010     1.2070 c3         1 1MD      -0.052400
     13 C14         -0.7630     0.0010    -1.2690 cp         1 1MD      -0.095000
     14 C15          2.1600    -0.0000    -1.3010 c3         1 1MD       0.033100
     15 N16          2.4070     1.3840    -1.7230 nz         1 1MD       0.061400
     16 C17         -1.1250    -1.2060    -1.8700 ca         1 1MD      -0.048000
     17 C18         -1.8360    -1.1990    -3.0510 ca         1 1MD      -0.081000
     18 C19         -2.1910     0.0010    -3.6430 ca         1 1MD      -0.021600
     19 C20         -1.8360     1.2020    -3.0530 ca         1 1MD      -0.087000
     20 C21         -1.1300     1.2080    -1.8660 ca         1 1MD      -0.038600
     21 Cl1         -0.6910     2.7140    -1.1230 cl         1 1MD      -0.020400
     22 Cl2         -3.0860    -0.0000    -5.1310 cl         1 1MD       0.036600
     23 N2          -5.0590     1.6660     4.6120 n          1 1MD      -0.144800
     24 C25         -5.8820     0.5520     5.0900 c3         1 1MD       0.086300
     25 O2          -3.2320     2.3420     3.5500 o          1 1MD      -0.650100
     26 O1          -3.0090     0.0140     0.8320 o          1 1MD      -0.642500
     27 C8          -5.4820     3.0470     4.8570 c3         1 1MD       0.086300
     28 H1          -0.7380     0.8890     4.1630 h1         1 1MD       0.053200
     29 H2          -0.7380    -0.8900     4.1630 h1         1 1MD       0.053200
     30 H3          -3.3460    -0.5120     4.6390 h1         1 1MD       0.050700
     31 H4          -4.2350    -0.5110     3.1100 h1         1 1MD       0.050700
     32 H5           3.9370    -0.0590     2.2280 hc         1 1MD       0.022367
     33 H6           3.9410     0.9110     0.7490 hc         1 1MD       0.022367
     34 H7           3.9400    -0.8550     0.6480 hc         1 1MD       0.022367
     35 H8           3.1060    -0.5110    -1.1650 hx         1 1MD       0.089200
     36 H9           1.5790    -0.5120    -2.0590 hx         1 1MD       0.089200
     37 H10          2.0910     2.0120    -1.0110 hn         1 1MD       0.227800
     38 H11          3.3870     1.5170    -1.8740 hn         1 1MD       0.227800
     39 H13         -0.8480    -2.1460    -1.4080 ha         1 1MD       0.120000
     40 H14         -2.1170    -2.1350    -3.5180 ha         1 1MD       0.131000
     41 H15         -2.1190     2.1380    -3.5190 ha         1 1MD       0.138000
     42 H16         -6.7460     0.9410     5.6140 h1         1 1MD       0.014533
     43 H17         -5.2990    -0.0650     5.7630 h1         1 1MD       0.014533
     44 H18         -6.2090    -0.0430     4.2460 h1         1 1MD       0.014533
     45 H19         -6.4030     3.0470     5.4260 h1         1 1MD       0.014533
     46 H20         -4.7120     3.5670     5.4150 h1         1 1MD       0.014533
     47 H21         -5.6420     3.5490     3.9100 h1         1 1MD       0.014533
     48 H163         1.9170     1.5640    -2.5770 hn         1 1MD       0.227800
@<TRIPOS>BOND
     1     1     2 ar  
     2     1     5 ar  
     3     1    13 1   
     4     2     3 ar  
     5     2    14 1   
     6     3     4 ar  
     7     3    12 1   
     8     4     6 ar  
     9     5     6 ar  
    10     5     9 1   
    11     6     7 1   
    12     7     8 1   
    13     7    28 1   
    14     7    29 1   
    15     8     9 1   
    16     8    10 1   
    17     9    26 2   
    18    10    11 1   
    19    10    30 1   
    20    10    31 1   
    21    11    23 1   
    22    11    25 2   
    23    12    32 1   
    24    12    33 1   
    25    12    34 1   
    26    13    16 ar  
    27    13    20 ar  
    28    14    15 1   
    29    14    35 1   
    30    14    36 1   
    31    15    37 1   
    32    15    38 1   
    33    15    48 1   
    34    16    17 ar  
    35    16    39 1   
    36    17    18 ar  
    37    17    40 1   
    38    18    19 ar  
    39    18    22 1   
    40    19    20 ar  
    41    19    41 1   
    42    20    21 1   
    43    23    24 1   
    44    23    27 1   
    45    24    42 1   
    46    24    43 1   
    47    24    44 1   
    48    27    45 1   
    49    27    46 1   
    50    27    47 1   
@<TRIPOS>SUBSTRUCTURE
     1 1MD         1 TEMP              0 ****  ****    0 ROOT
