@<TRIPOS>MOLECULE
1MD
   49    51     1     0     0
SMALL
bcc


@<TRIPOS>ATOM
      1 C1           0.0300     0.0680     0.0900 cp         1 1MD       0.132000
      2 C2           1.4360     0.1170    -0.0970 ca         1 1MD      -0.310600
      3 C3           2.3100    -0.0510     1.0070 ca         1 1MD       0.506600
      4 N4           1.8580    -0.2470     2.2810 nb         1 1MD      -0.625000
      5 C4          -0.4230    -0.1360     1.3860 ca         1 1MD      -0.271900
      6 C6           0.5360    -0.2810     2.4440 ca         1 1MD       0.468600
      7 C5          -0.2060    -0.4730     3.7610 c3         1 1MD       0.031700
      8 N1          -1.6150    -0.4040     3.3740 n          1 1MD      -0.508800
      9 C9          -1.7840    -0.2310     1.9760 c          1 1MD       0.743100
     10 C10         -2.6760    -0.3760     4.3070 c3         1 1MD       0.073000
     11 C7          -3.3000    -1.7680     4.5270 c          1 1MD       0.499100
     12 C13          3.7930    -0.0400     0.8050 c3         1 1MD      -0.177400
     13 C14         -0.8910     0.2030    -1.0440 cp         1 1MD      -0.113000
     14 C15          1.9810     0.2910    -1.4740 c3         1 1MD       0.172100
     15 N16          2.1440     1.7360    -1.8290 nz         1 1MD      -0.861600
     16 C17         -1.4490    -0.9470    -1.6190 ca         1 1MD      -0.082000
     17 C18         -2.3600    -0.8500    -2.6670 ca         1 1MD      -0.106000
     18 C19         -2.7380     0.4090    -3.1510 ca         1 1MD       0.044400
     19 C20         -2.1890     1.5710    -2.5920 ca         1 1MD      -0.106000
     20 C21         -1.2630     1.4580    -1.5550 ca         1 1MD       0.003400
     21 Cl1         -0.5880     2.8910    -0.9070 cl         1 1MD      -0.082400
     22 Cl2         -3.8550     0.5350    -4.4060 cl         1 1MD      -0.004400
     23 N2          -4.8140    -1.8420     4.4260 nx         1 1MD      -0.586200
     24 C25         -5.3750    -2.8930     5.3150 c3         1 1MD       0.077100
     25 O2          -2.7000    -2.7990     4.7740 o          1 1MD      -0.391100
     26 O1          -2.9000    -0.2010     1.4460 o          1 1MD      -0.592500
     27 C8          -5.2000    -2.0760     3.0080 c3         1 1MD       0.077100
     28 H1           0.0340    -1.4760     4.2150 h1         1 1MD       0.109700
     29 H2           0.0540     0.3420     4.4930 h1         1 1MD       0.109700
     30 H3          -2.3020    -0.0480     5.3240 h1         1 1MD       0.112700
     31 H4          -3.4660     0.3470     3.9430 h1         1 1MD       0.112700
     32 H5           4.0940     0.8400     0.1870 hc         1 1MD       0.079700
     33 H6           4.3500     0.0130     1.7770 hc         1 1MD       0.079700
     34 H7           4.1030    -0.9840     0.2860 hc         1 1MD       0.079700
     35 H8           2.9890    -0.2110    -1.5810 hx         1 1MD       0.121700
     36 H9           1.2750    -0.1650    -2.2320 hx         1 1MD       0.121700
     37 H10          2.8850     2.1590    -1.2620 hn         1 1MD       0.463467
     38 H11          1.2510     2.2470    -1.6400 hn         1 1MD       0.463467
     39 H13         -1.1700    -1.9410    -1.2320 ha         1 1MD       0.159000
     40 H14         -2.7890    -1.7660    -3.1100 ha         1 1MD       0.180000
     41 H15         -2.4950     2.5650    -2.9640 ha         1 1MD       0.187000
     42 H16         -6.4890    -2.9350     5.1810 hx         1 1MD       0.115200
     43 H17         -4.9240    -3.8890     5.0510 hx         1 1MD       0.115200
     44 H18         -5.1270    -2.6470     6.3820 hx         1 1MD       0.115200
     45 H19         -4.8570    -3.0990     2.6950 hx         1 1MD       0.115200
     46 H20         -6.3180    -2.0120     2.9130 hx         1 1MD       0.115200
     47 H21         -4.7160    -1.2960     2.3530 hx         1 1MD       0.115200
     48 H163         2.3880     1.8280    -2.8190 hn         1 1MD       0.463467
     49 H211        -5.1960    -0.9330     4.7190 hn         1 1MD       0.454800
@<TRIPOS>BOND
     1     1     2 ar  
     2     1     5 ar  
     3     1    13 1   
     4     2     3 ar  
     5     2    14 1   
     6     3     4 ar  
     7     3    12 1   
     8     4     6 ar  
     9     5     6 ar  
    10     5     9 1   
    11     6     7 1   
    12     7     8 1   
    13     7    28 1   
    14     7    29 1   
    15     8     9 1   
    16     8    10 1   
    17     9    26 2   
    18    10    11 1   
    19    10    30 1   
    20    10    31 1   
    21    11    23 1   
    22    11    25 2   
    23    12    32 1   
    24    12    33 1   
    25    12    34 1   
    26    13    16 ar  
    27    13    20 ar  
    28    14    15 1   
    29    14    35 1   
    30    14    36 1   
    31    15    37 1   
    32    15    38 1   
    33    15    48 1   
    34    16    17 ar  
    35    16    39 1   
    36    17    18 ar  
    37    17    40 1   
    38    18    19 ar  
    39    18    22 1   
    40    19    20 ar  
    41    19    41 1   
    42    20    21 1   
    43    23    24 1   
    44    23    27 1   
    45    23    49 1   
    46    24    42 1   
    47    24    43 1   
    48    24    44 1   
    49    27    45 1   
    50    27    46 1   
    51    27    47 1   
@<TRIPOS>SUBSTRUCTURE
     1 1MD         1 TEMP              0 ****  ****    0 ROOT
