@<TRIPOS>MOLECULE
molecule
   48    50     1     0     0
SMALL
bcc


@<TRIPOS>ATOM
      1 C1           0.0000     0.0000     0.0000 cp         1 1MD       0.104000
      2 C2           1.3980     0.0000     0.0000 ca         1 1MD      -0.329600
      3 C3           2.0710     0.0000     1.2040 ca         1 1MD       0.492600
      4 N4           1.4200    -0.0000     2.3530 nb         1 1MD      -0.668000
      5 C4          -0.6600     0.0060     1.2450 ca         1 1MD      -0.259900
      6 C6           0.1070     0.0000     2.4120 ca         1 1MD       0.487600
      7 C5          -0.8730    -0.0000     3.5600 c3         1 1MD       0.046700
      8 N1          -2.2120    -0.0000     2.9580 n          1 1MD      -0.466800
      9 C9          -2.0830     0.0120     1.6200 c          1 1MD       0.722100
     10 C10         -3.4780    -0.0010     3.6930 c3         1 1MD       0.063000
     11 C7          -3.9130     1.4200     3.9460 c          1 1MD       0.638100
     12 C13          3.5780    -0.0010     1.2070 c3         1 1MD      -0.157400
     13 C14         -0.7630     0.0010    -1.2690 cp         1 1MD      -0.089000
     14 C15          2.1600    -0.0000    -1.3010 c3         1 1MD       0.168100
     15 N16          2.4070     1.3840    -1.7230 nz         1 1MD      -0.809600
     16 C17         -1.1250    -1.2060    -1.8700 ca         1 1MD      -0.082000
     17 C18         -1.8360    -1.1990    -3.0510 ca         1 1MD      -0.108000
     18 C19         -2.1910     0.0010    -3.6430 ca         1 1MD       0.051400
     19 C20         -1.8360     1.2020    -3.0530 ca         1 1MD      -0.110000
     20 C21         -1.1300     1.2080    -1.8660 ca         1 1MD       0.027400
     21 Cl1         -0.6910     2.7140    -1.1230 cl         1 1MD      -0.100400
     22 Cl2         -3.0860    -0.0000    -5.1310 cl         1 1MD      -0.053400
     23 N2          -5.0590     1.6660     4.6120 n          1 1MD      -0.489800
     24 C25         -5.8820     0.5520     5.0900 c3         1 1MD       0.096300
     25 O2          -3.2320     2.3420     3.5500 o          1 1MD      -0.601100
     26 O1          -3.0090     0.0140     0.8320 o          1 1MD      -0.593500
     27 C8          -5.4820     3.0470     4.8570 c3         1 1MD       0.096300
     28 H1          -0.7380     0.8890     4.1630 h1         1 1MD       0.094200
     29 H2          -0.7380    -0.8900     4.1630 h1         1 1MD       0.094200
     30 H3          -3.3460    -0.5120     4.6390 h1         1 1MD       0.086200
     31 H4          -4.2350    -0.5110     3.1100 h1         1 1MD       0.086200
     32 H5           3.9370    -0.0590     2.2280 hc         1 1MD       0.063700
     33 H6           3.9410     0.9110     0.7490 hc         1 1MD       0.063700
     34 H7           3.9400    -0.8550     0.6480 hc         1 1MD       0.063700
     35 H8           3.1060    -0.5110    -1.1650 hx         1 1MD       0.113700
     36 H9           1.5790    -0.5120    -2.0590 hx         1 1MD       0.113700
     37 H10          2.0910     2.0120    -1.0110 hn         1 1MD       0.456800
     38 H11          3.3870     1.5170    -1.8740 hn         1 1MD       0.456800
     39 H13         -0.8480    -2.1460    -1.4080 ha         1 1MD       0.157000
     40 H14         -2.1170    -2.1350    -3.5180 ha         1 1MD       0.168000
     41 H15         -2.1190     2.1380    -3.5190 ha         1 1MD       0.173000
     42 H16         -6.7460     0.9410     5.6140 h1         1 1MD       0.046367
     43 H17         -5.2990    -0.0650     5.7630 h1         1 1MD       0.046367
     44 H18         -6.2090    -0.0430     4.2460 h1         1 1MD       0.046367
     45 H19         -6.4030     3.0470     5.4260 h1         1 1MD       0.046367
     46 H20         -4.7120     3.5670     5.4150 h1         1 1MD       0.046367
     47 H21         -5.6420     3.5490     3.9100 h1         1 1MD       0.046367
     48 H163         1.9170     1.5640    -2.5770 hn         1 1MD       0.456800
@<TRIPOS>BOND
     1    24    23 1   
     2    12     3 1   
     3     4     6 ar  
     4     4     3 ar  
     5    25    11 2   
     6    23    11 1   
     7    23    27 1   
     8     7     6 1   
     9     7     8 1   
    10    11    10 1   
    11     6     5 ar  
    12     3     2 ar  
    13    10     8 1   
    14     8     9 1   
    15     5     9 1   
    16     5     1 ar  
    17     2    14 1   
    18     2     1 ar  
    19     9    26 2   
    20    14    15 1   
    21     1    13 1   
    22    13    16 ar  
    23    13    20 ar  
    24    16    17 ar  
    25    21    20 1   
    26    20    19 ar  
    27    17    18 ar  
    28    19    18 ar  
    29    18    22 1   
    30     7    28 1   
    31     7    29 1   
    32    10    30 1   
    33    10    31 1   
    34    12    32 1   
    35    12    33 1   
    36    12    34 1   
    37    14    35 1   
    38    14    36 1   
    39    15    37 1   
    40    15    38 1   
    41    16    39 1   
    42    17    40 1   
    43    19    41 1   
    44    24    42 1   
    45    24    43 1   
    46    24    44 1   
    47    27    45 1   
    48    27    46 1   
    49    27    47 1   
    50    48    15 1   
@<TRIPOS>SUBSTRUCTURE
     1 1MD         1 TEMP              0 ****  ****    0 ROOT
