@<TRIPOS>MOLECULE
molecule
   84    88     1     0     0
SMALL
bcc


@<TRIPOS>ATOM
      1 OAD          0.0000     0.0000     0.0000 o          1 1MF      -0.845300
      2 CBK          1.3460     0.0000     0.0000 c          1 1MF       0.886200
      3 OAB          1.9540     0.0000     1.0510 o          1 1MF      -0.845300
      4 CBP          2.0850    -0.0020    -1.2800 ca         1 1MF      -0.104600
      5 CAU          3.4810    -0.0010    -1.2840 ca         1 1MF      -0.102000
      6 CAM          4.1640    -0.0030    -2.4830 ca         1 1MF      -0.148500
      7 CAT          1.3890    -0.0080    -2.4910 ca         1 1MF      -0.102000
      8 CAL          2.0850    -0.0100    -3.6820 ca         1 1MF      -0.148500
      9 CBM          3.4690    -0.0040    -3.6790 ca         1 1MF      -0.107300
     10 CBG          4.2210    -0.0050    -4.9840 c3         1 1MF       0.211100
     11 NBU          4.4600     1.3800    -5.4130 n3         1 1MF      -0.719600
     12 CBD          3.1980     2.0550    -5.7380 c3         1 1MF       0.154800
     13 CBA          3.4300     3.5660    -5.8030 c3         1 1MF      -0.085400
     14 CAZ          2.0910     4.2800    -6.0090 c3         1 1MF      -0.065400
     15 CBB          2.3240     5.7910    -6.0730 c3         1 1MF      -0.180400
     16 CBJ          1.0060     6.4940    -6.2760 c          1 1MF       0.892600
     17 OAC         -0.0140     5.8510    -6.3610 o          1 1MF      -0.863300
     18 OAA          0.9660     7.8320    -6.3630 o          1 1MF      -0.863300
     19 CBE          5.3900     1.4260    -6.5490 c3         1 1MF       0.167800
     20 CBC          6.7870     1.0130    -6.0820 c3         1 1MF      -0.034100
     21 CBS          7.7200     0.9700    -7.2640 ca         1 1MF      -0.093300
     22 CAP          7.9480    -0.2230    -7.9240 ca         1 1MF      -0.094000
     23 CAH          8.8040    -0.2620    -9.0080 ca         1 1MF      -0.174000
     24 CAI          9.4330     0.8920    -9.4370 ca         1 1MF      -0.107000
     25 CAQ          9.2100     2.0870    -8.7820 ca         1 1MF      -0.227000
     26 CBT          8.3470     2.1300    -7.6960 ca         1 1MF       0.145100
     27 OBH          8.1210     3.3060    -7.0530 os         1 1MF      -0.304900
     28 CBF          8.8000     4.4600    -7.5530 c3         1 1MF       0.188700
     29 CBL          8.4280     5.6600    -6.7210 ca         1 1MF      -0.095300
     30 CAO          9.1800     5.9850    -5.6060 ca         1 1MF      -0.099500
     31 CAW          8.8450     7.0830    -4.8410 ca         1 1MF      -0.116000
     32 CBQ          7.7470     7.8660    -5.1930 cp         1 1MF      -0.029000
     33 CAV          6.9940     7.5340    -6.3170 ca         1 1MF      -0.116000
     34 CAN          7.3410     6.4370    -7.0780 ca         1 1MF      -0.099500
     35 CBR          7.3810     9.0470    -4.3740 cp         1 1MF      -0.030000
     36 CAY          6.2830     9.8290    -4.7270 ca         1 1MF      -0.106500
     37 CAS          5.9450    10.9270    -3.9640 ca         1 1MF      -0.134500
     38 CBO          6.6980    11.2540    -2.8440 ca         1 1MF       0.086100
     39 CAR          7.7930    10.4770    -2.4900 ca         1 1MF      -0.134500
     40 CAX          8.1330     9.3750    -3.2460 ca         1 1MF      -0.106500
     41 OBI          6.3640    12.3370    -2.0940 os         1 1MF      -0.242200
     42 CBN          7.1130    13.4620    -2.2290 ca         1 1MF       0.149100
     43 CAJ          8.1010    13.5270    -3.2020 ca         1 1MF      -0.182500
     44 CAF          8.8610    14.6730    -3.3370 ca         1 1MF      -0.098500
     45 CAE          8.6380    15.7540    -2.5040 ca         1 1MF      -0.176000
     46 CAG          7.6550    15.6910    -1.5340 ca         1 1MF      -0.098500
     47 CAK          6.8890    14.5500    -1.3980 ca         1 1MF      -0.182500
     48 H2           4.0270    -0.0010    -0.3490 ha         1 1MF       0.146000
     49 H3           5.2470    -0.0010    -2.4880 ha         1 1MF       0.106500
     50 H4           0.3050    -0.0130    -2.4950 ha         1 1MF       0.146000
     51 H5           1.5470    -0.0120    -4.6220 ha         1 1MF       0.106500
     52 H6           3.6360    -0.5200    -5.7370 h1         1 1MF       0.018700
     53 H7           5.1690    -0.5130    -4.8540 h1         1 1MF       0.018700
     54 H9           2.4630     1.8350    -4.9730 h1         1 1MF       0.041200
     55 H10          2.8370     1.7040    -6.6970 h1         1 1MF       0.041200
     56 H11          4.0920     3.7950    -6.6290 hc         1 1MF       0.034700
     57 H12          3.8800     3.9020    -4.8760 hc         1 1MF       0.034700
     58 H13          1.6420     3.9450    -6.9360 hc         1 1MF       0.047200
     59 H14          1.4290     4.0520    -5.1830 hc         1 1MF       0.047200
     60 H15          2.7740     6.1270    -5.1460 hc         1 1MF       0.023700
     61 H16          2.9860     6.0200    -6.8990 hc         1 1MF       0.023700
     62 H18          5.0520     0.7450    -7.3210 h1         1 1MF       0.033200
     63 H19          5.4260     2.4330    -6.9470 h1         1 1MF       0.033200
     64 H20          7.1530     1.7310    -5.3580 hc         1 1MF       0.061200
     65 H21          6.7390     0.0320    -5.6240 hc         1 1MF       0.061200
     66 H22          7.4570    -1.1290    -7.5890 ha         1 1MF       0.136000
     67 H23          8.9810    -1.1990    -9.5230 ha         1 1MF       0.119000
     68 H24         10.1050     0.8570   -10.2870 ha         1 1MF       0.116000
     69 H25          9.7020     2.9910    -9.1200 ha         1 1MF       0.126000
     70 H26          9.8700     4.3010    -7.5000 h1         1 1MF       0.033700
     71 H27          8.5110     4.6310    -8.5830 h1         1 1MF       0.033700
     72 H28         10.0370     5.3790    -5.3360 ha         1 1MF       0.135000
     73 H29          9.3990     7.3030    -3.9370 ha         1 1MF       0.139000
     74 H30          6.1820     8.1780    -6.6330 ha         1 1MF       0.139000
     75 H31          6.7720     6.1940    -7.9670 ha         1 1MF       0.135000
     76 H32          5.6950     9.5750    -5.6010 ha         1 1MF       0.146500
     77 H33          5.0910    11.5350    -4.2380 ha         1 1MF       0.145000
     78 H34          8.3780    10.7330    -1.6140 ha         1 1MF       0.145000
     79 H35          8.9870     8.7690    -2.9690 ha         1 1MF       0.146500
     80 H36          8.2760    12.6810    -3.8550 ha         1 1MF       0.147000
     81 H37          9.6320    14.7250    -4.0960 ha         1 1MF       0.125500
     82 H38          9.2360    16.6510    -2.6100 ha         1 1MF       0.120000
     83 H39          7.4810    16.5400    -0.8840 ha         1 1MF       0.125500
     84 H40          6.1190    14.5010    -0.6370 ha         1 1MF       0.147000
@<TRIPOS>BOND
     1    45    44 ar  
     2    45    46 ar  
     3    44    43 ar  
     4    46    47 ar  
     5    43    42 ar  
     6    47    42 ar  
     7    42    41 1   
     8    41    38 1   
     9    39    38 ar  
    10    39    40 ar  
    11    38    37 ar  
    12    40    35 ar  
    13    37    36 ar  
    14    35    36 ar  
    15    35    32 1   
    16    33    32 ar  
    17    33    34 ar  
    18    32    31 ar  
    19     3     2 1   
    20    34    29 ar  
    21    31    30 ar  
    22     7     8 ar  
    23     7     4 ar  
    24    29    30 ar  
    25    29    28 1   
    26     2     4 1   
    27     2     1 1   
    28     8     9 ar  
    29     4     5 ar  
    30    28    27 1   
    31    27    26 1   
    32     9    10 1   
    33     9     6 ar  
    34    20    21 1   
    35    20    19 1   
    36     5     6 ar  
    37    10    11 1   
    38    26    21 ar  
    39    26    25 ar  
    40    21    22 ar  
    41    25    24 ar  
    42    17    16 1   
    43    22    23 ar  
    44    24    23 ar  
    45    19    11 1   
    46    11    12 1   
    47    16    18 1   
    48    16    15 1   
    49    15    14 1   
    50    12    13 1   
    51    14    13 1   
    52     5    48 1   
    53     6    49 1   
    54     7    50 1   
    55     8    51 1   
    56    10    52 1   
    57    10    53 1   
    58    12    54 1   
    59    12    55 1   
    60    13    56 1   
    61    13    57 1   
    62    14    58 1   
    63    14    59 1   
    64    15    60 1   
    65    15    61 1   
    66    19    62 1   
    67    19    63 1   
    68    20    64 1   
    69    20    65 1   
    70    22    66 1   
    71    23    67 1   
    72    24    68 1   
    73    25    69 1   
    74    28    70 1   
    75    28    71 1   
    76    30    72 1   
    77    31    73 1   
    78    33    74 1   
    79    34    75 1   
    80    36    76 1   
    81    37    77 1   
    82    39    78 1   
    83    40    79 1   
    84    43    80 1   
    85    44    81 1   
    86    45    82 1   
    87    46    83 1   
    88    47    84 1   
@<TRIPOS>SUBSTRUCTURE
     1 1MF         1 TEMP              0 ****  ****    0 ROOT
