@<TRIPOS>MOLECULE
1MF
   85    89     1     0     0
SMALL
bcc


@<TRIPOS>ATOM
      1 OAD          1.3400     3.3860    -2.4580 o          1 1MF      -0.818800
      2 CBK          1.8610     2.6730    -1.5520 c          1 1MF       0.913200
      3 OAB          1.6370     2.7850    -0.3200 o          1 1MF      -0.818800
      4 CBP          2.8630     1.6240    -2.0180 ca         1 1MF      -0.096600
      5 CAU          2.6630     0.9730    -3.2400 ca         1 1MF      -0.108500
      6 CAM          3.6570     0.1600    -3.7760 ca         1 1MF      -0.135500
      7 CAT          4.0280     1.3690    -1.2880 ca         1 1MF      -0.108500
      8 CAL          5.0240     0.5500    -1.8160 ca         1 1MF      -0.135500
      9 CBM          4.8610    -0.0210    -3.0850 ca         1 1MF      -0.184300
     10 CBG          6.0330    -0.6720    -3.7360 c3         1 1MF       0.167100
     11 NBU          5.7270    -1.9600    -4.4380 nx         1 1MF      -0.670400
     12 CBD          5.2600    -3.0140    -3.4790 c3         1 1MF       0.115800
     13 CBA          4.0140    -3.7610    -3.9400 c3         1 1MF      -0.102400
     14 CAZ          4.1940    -4.5660    -5.2090 c3         1 1MF      -0.082400
     15 CBB          5.1150    -5.7530    -5.0480 c3         1 1MF      -0.207400
     16 CBJ          5.9550    -5.9850    -6.3150 c          1 1MF       0.912600
     17 OAC          5.9240    -7.1120    -6.8660 o          1 1MF      -0.838300
     18 OAA          6.6650    -5.0140    -6.7410 o          1 1MF      -0.838300
     19 CBE          6.9130    -2.4280    -5.2240 c3         1 1MF       0.059800
     20 CBC          7.2440    -1.5540    -6.4280 c3         1 1MF      -0.036100
     21 CBS          6.0740    -1.3020    -7.3100 ca         1 1MF      -0.161300
     22 CAP          5.5150    -2.3610    -8.0350 ca         1 1MF      -0.098000
     23 CAH          4.4550    -2.1360    -8.9120 ca         1 1MF      -0.160000
     24 CAI          3.9410    -0.8500    -9.0770 ca         1 1MF      -0.098000
     25 CAQ          4.4760     0.2190    -8.3620 ca         1 1MF      -0.195000
     26 CBT          5.5380    -0.0070    -7.4780 ca         1 1MF       0.111100
     27 OBH          6.0830     0.9940    -6.6890 os         1 1MF      -0.352900
     28 CBF          6.0400     2.3230    -7.2250 c3         1 1MF       0.183700
     29 CBL          4.7800     3.0600    -6.9140 ca         1 1MF      -0.142300
     30 CAO          4.0930     2.8540    -5.7160 ca         1 1MF      -0.125500
     31 CAW          2.9320     3.5690    -5.4240 ca         1 1MF      -0.124000
     32 CBQ          2.4460     4.5240    -6.3290 cp         1 1MF      -0.019000
     33 CAV          3.1560     4.7490    -7.5200 ca         1 1MF      -0.124000
     34 CAN          4.3030     4.0190    -7.8140 ca         1 1MF      -0.125500
     35 CBR          1.2220     5.2690    -6.0400 cp         1 1MF      -0.062000
     36 CAY          0.8310     5.5140    -4.7130 ca         1 1MF      -0.090000
     37 CAS         -0.3300     6.2340    -4.4380 ca         1 1MF      -0.159500
     38 CBO         -1.1180     6.6960    -5.4970 ca         1 1MF       0.092100
     39 CAR         -0.7570     6.4460    -6.8290 ca         1 1MF      -0.159500
     40 CAX          0.4120     5.7380    -7.0870 ca         1 1MF      -0.090000
     41 OBI         -2.2370     7.5080    -5.3160 os         1 1MF      -0.259200
     42 CBN         -3.1140     7.1640    -4.2950 ca         1 1MF       0.117100
     43 CAJ         -3.9370     8.2120    -3.8480 ca         1 1MF      -0.164500
     44 CAF         -4.8990     7.9450    -2.8780 ca         1 1MF      -0.104500
     45 CAE         -5.0370     6.6600    -2.3520 ca         1 1MF      -0.163000
     46 CAG         -4.2110     5.6290    -2.8000 ca         1 1MF      -0.104500
     47 CAK         -3.2470     5.8700    -3.7770 ca         1 1MF      -0.164500
     48 H2           1.7260     1.1560    -3.7900 ha         1 1MF       0.157000
     49 H3           3.4980    -0.2950    -4.7650 ha         1 1MF       0.114500
     50 H4           4.1450     1.8410    -0.3000 ha         1 1MF       0.157000
     51 H5           5.9510     0.3790    -1.2510 ha         1 1MF       0.114500
     52 H6           6.8430    -0.8840    -2.9820 hx         1 1MF       0.092700
     53 H7           6.4370     0.0370    -4.5220 hx         1 1MF       0.092700
     54 H9           5.0280    -2.5070    -2.4980 hx         1 1MF       0.092700
     55 H10          6.1050    -3.7410    -3.3170 hx         1 1MF       0.092700
     56 H11          3.1700    -3.0320    -4.0720 hc         1 1MF       0.061200
     57 H12          3.7310    -4.4510    -3.0990 hc         1 1MF       0.061200
     58 H13          3.1820    -4.9280    -5.5360 hc         1 1MF       0.050700
     59 H14          4.5770    -3.9050    -6.0350 hc         1 1MF       0.050700
     60 H15          4.5230    -6.6760    -4.8280 hc         1 1MF       0.033200
     61 H16          5.8260    -5.5990    -4.1970 hc         1 1MF       0.033200
     62 H18          6.6930    -3.4950    -5.5980 hx         1 1MF       0.135200
     63 H19          7.7950    -2.4610    -4.5270 hx         1 1MF       0.135200
     64 H20          8.0220    -2.1250    -7.0110 hc         1 1MF       0.076200
     65 H21          7.7040    -0.5840    -6.1030 hc         1 1MF       0.076200
     66 H22          5.9270    -3.3860    -7.9040 ha         1 1MF       0.214000
     67 H23          4.0290    -2.9800    -9.4750 ha         1 1MF       0.143000
     68 H24          3.1040    -0.6740    -9.7700 ha         1 1MF       0.131000
     69 H25          4.0620     1.2320    -8.4780 ha         1 1MF       0.153000
     70 H26          6.2300     2.2980    -8.3300 h1         1 1MF       0.058700
     71 H27          6.9060     2.8200    -6.7020 h1         1 1MF       0.058700
     72 H28          4.4670     2.1070    -4.9960 ha         1 1MF       0.134000
     73 H29          2.3960     3.3730    -4.4690 ha         1 1MF       0.165000
     74 H30          2.8100     5.5150    -8.2300 ha         1 1MF       0.165000
     75 H31          4.8390     4.2020    -8.7570 ha         1 1MF       0.134000
     76 H32          1.4200     5.1130    -3.8640 ha         1 1MF       0.164500
     77 H33         -0.6300     6.4180    -3.3950 ha         1 1MF       0.148500
     78 H34         -1.3920     6.8110    -7.6460 ha         1 1MF       0.148500
     79 H35          0.6890     5.5310    -8.1320 ha         1 1MF       0.164500
     80 H36         -3.8140     9.2180    -4.2690 ha         1 1MF       0.152000
     81 H37         -5.5480     8.7580    -2.5210 ha         1 1MF       0.131000
     82 H38         -5.7930     6.4610    -1.5790 ha         1 1MF       0.127000
     83 H39         -4.3130     4.6180    -2.3790 ha         1 1MF       0.131000
     84 H40         -2.5900     5.0590    -4.1260 ha         1 1MF       0.152000
     85 HBU1         4.9670    -1.7790    -5.1130 hn         1 1MF       0.452800
@<TRIPOS>BOND
     1     1     2 1   
     2     2     3 1   
     3     2     4 1   
     4     4     5 ar  
     5     4     7 ar  
     6     5     6 ar  
     7     5    48 1   
     8     6     9 ar  
     9     6    49 1   
    10     7     8 ar  
    11     7    50 1   
    12     8     9 ar  
    13     8    51 1   
    14     9    10 1   
    15    10    11 1   
    16    10    52 1   
    17    10    53 1   
    18    11    12 1   
    19    11    19 1   
    20    11    85 1   
    21    12    13 1   
    22    12    54 1   
    23    12    55 1   
    24    13    14 1   
    25    13    56 1   
    26    13    57 1   
    27    14    15 1   
    28    14    58 1   
    29    14    59 1   
    30    15    16 1   
    31    15    60 1   
    32    15    61 1   
    33    16    17 1   
    34    16    18 1   
    35    19    20 1   
    36    19    62 1   
    37    19    63 1   
    38    20    21 1   
    39    20    64 1   
    40    20    65 1   
    41    21    22 ar  
    42    21    26 ar  
    43    22    23 ar  
    44    22    66 1   
    45    23    24 ar  
    46    23    67 1   
    47    24    25 ar  
    48    24    68 1   
    49    25    26 ar  
    50    25    69 1   
    51    26    27 1   
    52    27    28 1   
    53    28    29 1   
    54    28    70 1   
    55    28    71 1   
    56    29    30 ar  
    57    29    34 ar  
    58    30    31 ar  
    59    30    72 1   
    60    31    32 ar  
    61    31    73 1   
    62    32    33 ar  
    63    32    35 1   
    64    33    34 ar  
    65    33    74 1   
    66    34    75 1   
    67    35    36 ar  
    68    35    40 ar  
    69    36    37 ar  
    70    36    76 1   
    71    37    38 ar  
    72    37    77 1   
    73    38    39 ar  
    74    38    41 1   
    75    39    40 ar  
    76    39    78 1   
    77    40    79 1   
    78    41    42 1   
    79    42    43 ar  
    80    42    47 ar  
    81    43    44 ar  
    82    43    80 1   
    83    44    45 ar  
    84    44    81 1   
    85    45    46 ar  
    86    45    82 1   
    87    46    47 ar  
    88    46    83 1   
    89    47    84 1   
@<TRIPOS>SUBSTRUCTURE
     1 1MF         1 TEMP              0 ****  ****    0 ROOT
