@<TRIPOS>MOLECULE
1MF
   84    88     1     0     0
SMALL
bcc


@<TRIPOS>ATOM
      1 OAD          0.0000     0.0000     0.0000 o          1 1MF      -0.893300
      2 CBK          1.3460     0.0000     0.0000 c          1 1MF       0.979200
      3 OAB          1.9540     0.0000     1.0510 o          1 1MF      -0.893300
      4 CBP          2.0850    -0.0020    -1.2800 ca         1 1MF      -0.105600
      5 CAU          3.4810    -0.0010    -1.2840 ca         1 1MF      -0.074000
      6 CAM          4.1640    -0.0030    -2.4830 ca         1 1MF      -0.131000
      7 CAT          1.3890    -0.0080    -2.4910 ca         1 1MF      -0.074000
      8 CAL          2.0850    -0.0100    -3.6820 ca         1 1MF      -0.131000
      9 CBM          3.4690    -0.0040    -3.6790 ca         1 1MF      -0.120300
     10 CBG          4.2210    -0.0050    -4.9840 c3         1 1MF       0.207100
     11 NBU          4.4600     1.3800    -5.4130 n3         1 1MF      -0.526600
     12 CBD          3.1980     2.0550    -5.7380 c3         1 1MF       0.125800
     13 CBA          3.4300     3.5660    -5.8030 c3         1 1MF      -0.042400
     14 CAZ          2.0910     4.2800    -6.0090 c3         1 1MF      -0.016400
     15 CBB          2.3240     5.7910    -6.0730 c3         1 1MF      -0.133400
     16 CBJ          1.0060     6.4940    -6.2760 c          1 1MF       0.981600
     17 OAC         -0.0140     5.8510    -6.3610 o          1 1MF      -0.911800
     18 OAA          0.9660     7.8320    -6.3630 o          1 1MF      -0.911800
     19 CBE          5.3900     1.4260    -6.5490 c3         1 1MF       0.143800
     20 CBC          6.7870     1.0130    -6.0820 c3         1 1MF       0.019900
     21 CBS          7.7200     0.9700    -7.2640 ca         1 1MF      -0.104300
     22 CAP          7.9480    -0.2230    -7.9240 ca         1 1MF      -0.064000
     23 CAH          8.8040    -0.2620    -9.0080 ca         1 1MF      -0.154000
     24 CAI          9.4330     0.8920    -9.4370 ca         1 1MF      -0.076000
     25 CAQ          9.2100     2.0870    -8.7820 ca         1 1MF      -0.220000
     26 CBT          8.3470     2.1300    -7.6960 ca         1 1MF       0.158100
     27 OBH          8.1210     3.3060    -7.0530 os         1 1MF      -0.279900
     28 CBF          8.8000     4.4600    -7.5530 c3         1 1MF       0.261700
     29 CBL          8.4280     5.6600    -6.7210 ca         1 1MF      -0.115300
     30 CAO          9.1800     5.9850    -5.6060 ca         1 1MF      -0.070500
     31 CAW          8.8450     7.0830    -4.8410 ca         1 1MF      -0.097000
     32 CBQ          7.7470     7.8660    -5.1930 cp         1 1MF      -0.025000
     33 CAV          6.9940     7.5340    -6.3170 ca         1 1MF      -0.097000
     34 CAN          7.3410     6.4370    -7.0780 ca         1 1MF      -0.070500
     35 CBR          7.3810     9.0470    -4.3740 cp         1 1MF      -0.029000
     36 CAY          6.2830     9.8290    -4.7270 ca         1 1MF      -0.082500
     37 CAS          5.9450    10.9270    -3.9640 ca         1 1MF      -0.114000
     38 CBO          6.6980    11.2540    -2.8440 ca         1 1MF       0.087100
     39 CAR          7.7930    10.4770    -2.4900 ca         1 1MF      -0.114000
     40 CAX          8.1330     9.3750    -3.2460 ca         1 1MF      -0.082500
     41 OBI          6.3640    12.3370    -2.0940 os         1 1MF      -0.212200
     42 CBN          7.1130    13.4620    -2.2290 ca         1 1MF       0.158100
     43 CAJ          8.1010    13.5270    -3.2020 ca         1 1MF      -0.171500
     44 CAF          8.8610    14.6730    -3.3370 ca         1 1MF      -0.066000
     45 CAE          8.6380    15.7540    -2.5040 ca         1 1MF      -0.157000
     46 CAG          7.6550    15.6910    -1.5340 ca         1 1MF      -0.066000
     47 CAK          6.8890    14.5500    -1.3980 ca         1 1MF      -0.171500
     48 H2           4.0270    -0.0010    -0.3490 ha         1 1MF       0.121500
     49 H3           5.2470    -0.0010    -2.4880 ha         1 1MF       0.088500
     50 H4           0.3050    -0.0130    -2.4950 ha         1 1MF       0.121500
     51 H5           1.5470    -0.0120    -4.6220 ha         1 1MF       0.088500
     52 H6           3.6360    -0.5200    -5.7370 h1         1 1MF      -0.001800
     53 H7           5.1690    -0.5130    -4.8540 h1         1 1MF      -0.001800
     54 H9           2.4630     1.8350    -4.9730 h1         1 1MF       0.023200
     55 H10          2.8370     1.7040    -6.6970 h1         1 1MF       0.023200
     56 H11          4.0920     3.7950    -6.6290 hc         1 1MF       0.010700
     57 H12          3.8800     3.9020    -4.8760 hc         1 1MF       0.010700
     58 H13          1.6420     3.9450    -6.9360 hc         1 1MF       0.023200
     59 H14          1.4290     4.0520    -5.1830 hc         1 1MF       0.023200
     60 H15          2.7740     6.1270    -5.1460 hc         1 1MF       0.000700
     61 H16          2.9860     6.0200    -6.8990 hc         1 1MF       0.000700
     62 H18          5.0520     0.7450    -7.3210 h1         1 1MF       0.012700
     63 H19          5.4260     2.4330    -6.9470 h1         1 1MF       0.012700
     64 H20          7.1530     1.7310    -5.3580 hc         1 1MF       0.032700
     65 H21          6.7390     0.0320    -5.6240 hc         1 1MF       0.032700
     66 H22          7.4570    -1.1290    -7.5890 ha         1 1MF       0.107000
     67 H23          8.9810    -1.1990    -9.5230 ha         1 1MF       0.096000
     68 H24         10.1050     0.8570   -10.2870 ha         1 1MF       0.089000
     69 H25          9.7020     2.9910    -9.1200 ha         1 1MF       0.114000
     70 H26          9.8700     4.3010    -7.5000 h1         1 1MF      -0.002300
     71 H27          8.5110     4.6310    -8.5830 h1         1 1MF      -0.002300
     72 H28         10.0370     5.3790    -5.3360 ha         1 1MF       0.106500
     73 H29          9.3990     7.3030    -3.9370 ha         1 1MF       0.116000
     74 H30          6.1820     8.1780    -6.6330 ha         1 1MF       0.116000
     75 H31          6.7720     6.1940    -7.9670 ha         1 1MF       0.106500
     76 H32          5.6950     9.5750    -5.6010 ha         1 1MF       0.121500
     77 H33          5.0910    11.5350    -4.2380 ha         1 1MF       0.116500
     78 H34          8.3780    10.7330    -1.6140 ha         1 1MF       0.116500
     79 H35          8.9870     8.7690    -2.9690 ha         1 1MF       0.121500
     80 H36          8.2760    12.6810    -3.8550 ha         1 1MF       0.124000
     81 H37          9.6320    14.7250    -4.0960 ha         1 1MF       0.096000
     82 H38          9.2360    16.6510    -2.6100 ha         1 1MF       0.097000
     83 H39          7.4810    16.5400    -0.8840 ha         1 1MF       0.096000
     84 H40          6.1190    14.5010    -0.6370 ha         1 1MF       0.124000
@<TRIPOS>BOND
     1     1     2 1   
     2     2     3 1   
     3     2     4 1   
     4     4     5 ar  
     5     4     7 ar  
     6     5     6 ar  
     7     5    48 1   
     8     6     9 ar  
     9     6    49 1   
    10     7     8 ar  
    11     7    50 1   
    12     8     9 ar  
    13     8    51 1   
    14     9    10 1   
    15    10    11 1   
    16    10    52 1   
    17    10    53 1   
    18    11    12 1   
    19    11    19 1   
    20    12    13 1   
    21    12    54 1   
    22    12    55 1   
    23    13    14 1   
    24    13    56 1   
    25    13    57 1   
    26    14    15 1   
    27    14    58 1   
    28    14    59 1   
    29    15    16 1   
    30    15    60 1   
    31    15    61 1   
    32    16    17 1   
    33    16    18 1   
    34    19    20 1   
    35    19    62 1   
    36    19    63 1   
    37    20    21 1   
    38    20    64 1   
    39    20    65 1   
    40    21    22 ar  
    41    21    26 ar  
    42    22    23 ar  
    43    22    66 1   
    44    23    24 ar  
    45    23    67 1   
    46    24    25 ar  
    47    24    68 1   
    48    25    26 ar  
    49    25    69 1   
    50    26    27 1   
    51    27    28 1   
    52    28    29 1   
    53    28    70 1   
    54    28    71 1   
    55    29    30 ar  
    56    29    34 ar  
    57    30    31 ar  
    58    30    72 1   
    59    31    32 ar  
    60    31    73 1   
    61    32    33 ar  
    62    32    35 1   
    63    33    34 ar  
    64    33    74 1   
    65    34    75 1   
    66    35    36 ar  
    67    35    40 ar  
    68    36    37 ar  
    69    36    76 1   
    70    37    38 ar  
    71    37    77 1   
    72    38    39 ar  
    73    38    41 1   
    74    39    40 ar  
    75    39    78 1   
    76    40    79 1   
    77    41    42 1   
    78    42    43 ar  
    79    42    47 ar  
    80    43    44 ar  
    81    43    80 1   
    82    44    45 ar  
    83    44    81 1   
    84    45    46 ar  
    85    45    82 1   
    86    46    47 ar  
    87    46    83 1   
    88    47    84 1   
@<TRIPOS>SUBSTRUCTURE
     1 1MF         1 TEMP              0 ****  ****    0 ROOT
