@<TRIPOS>MOLECULE
1MJ
   17    18     1     0     0
SMALL
bcc


@<TRIPOS>ATOM
      1 C01        -0.0470    0.0030   -0.0410 cc        1 1MJ     -0.300800
      2 C02         1.3470    0.0010   -0.0280 cd        1 1MJ     -0.085100
      3 N03         1.8290   -0.0020    1.2810 na        1 1MJ     -0.181400
      4 C04         0.7390   -0.0020    2.1490 ca        1 1MJ     -0.184500
      5 C05        -0.4810    0.0020    1.3430 ca        1 1MJ      0.430100
      6 N06        -1.7210    0.0020    1.8910 nb        1 1MJ     -0.629000
      7 C07        -1.7750    0.0000    3.2240 ca        1 1MJ      0.414200
      8 C08        -0.6410   -0.0030    4.0890 ca        1 1MJ     -0.308900
      9 C09         0.6430   -0.0040    3.5460 ca        1 1MJ     -0.034000
     10 C10        -0.8430   -0.0050    5.5420 c         1 1MJ      0.582500
     11 O11         0.0800   -0.0080    6.3610 o         1 1MJ     -0.534100
     12 H1         -0.6980    0.0050   -0.9100 ha        1 1MJ      0.173000
     13 H2          2.0410    0.0020   -0.8730 h4        1 1MJ      0.171000
     14 H3          2.7760   -0.0040    1.5520 hn        1 1MJ      0.305700
     15 H4         -2.7920    0.0010    3.6580 h4        1 1MJ      0.022100
     16 H5          1.5280   -0.0060    4.2010 ha        1 1MJ      0.158000
     17 H7         -1.9080   -0.0040    5.8700 h4        1 1MJ      0.001200
@<TRIPOS>BOND
     1    1    2 2   
     2    1    5 1   
     3    1   12 1   
     4    2    3 1   
     5    2   13 1   
     6    3    4 1   
     7    3   14 1   
     8    4    5 ar  
     9    4    9 ar  
    10    5    6 ar  
    11    6    7 ar  
    12    7    8 ar  
    13    7   15 1   
    14    8    9 ar  
    15    8   10 1   
    16    9   16 1   
    17   10   11 2   
    18   10   17 1   
@<TRIPOS>SUBSTRUCTURE
     1 1MJ         1 TEMP              0 ****  ****    0 ROOT
