@<TRIPOS>MOLECULE
1MJ
   17    18     1     0     0
SMALL
bcc


@<TRIPOS>ATOM
      1 C01         -0.0170    -0.0840    -0.0350 cc         1 1MJ      -0.300800
      2 C02          1.3660     0.0800    -0.0450 cd         1 1MJ      -0.085100
      3 N03          1.8630     0.1750     1.2560 na         1 1MJ      -0.185400
      4 C04          0.7910     0.0730     2.1420 ca         1 1MJ      -0.184500
      5 C05         -0.4320    -0.0940     1.3550 ca         1 1MJ       0.434100
      6 N06         -1.6550    -0.2240     1.9220 nb         1 1MJ      -0.629000
      7 C07         -1.6920    -0.1910     3.2560 ca         1 1MJ       0.430200
      8 C08         -0.5540    -0.0320     4.1020 ca         1 1MJ      -0.304900
      9 C09          0.7140     0.1030     3.5390 ca         1 1MJ      -0.055000
     10 C10         -0.7210    -0.0110     5.5600 c          1 1MJ       0.581500
     11 O11         -1.8100    -0.1250     6.1270 o          1 1MJ      -0.526100
     12 H1          -0.6750    -0.1860    -0.8920 ha         1 1MJ       0.174000
     13 H2           2.0450     0.1370    -0.9000 h4         1 1MJ       0.171000
     14 H3           2.8060     0.2940     1.5100 hn         1 1MJ       0.303700
     15 H4          -2.6910    -0.2960     3.7220 h4         1 1MJ       0.044100
     16 H5           1.6090     0.2270     4.1650 ha         1 1MJ       0.138000
     17 H7           0.2220     0.1170     6.1400 h4         1 1MJ      -0.004800
@<TRIPOS>BOND
     1     1     2 2   
     2     1     5 1   
     3     1    12 1   
     4     2     3 1   
     5     2    13 1   
     6     3     4 1   
     7     3    14 1   
     8     4     5 ar  
     9     4     9 ar  
    10     5     6 ar  
    11     6     7 ar  
    12     7     8 ar  
    13     7    15 1   
    14     8     9 ar  
    15     8    10 1   
    16     9    16 1   
    17    10    11 2   
    18    10    17 1   
@<TRIPOS>SUBSTRUCTURE
     1 1MJ         1 TEMP              0 ****  ****    0 ROOT
