@<TRIPOS>MOLECULE
molecule
   17    18     1     0     0
SMALL
bcc


@<TRIPOS>ATOM
      1 C01          0.0000     0.0000     0.0000 cc         1 1MJ      -0.313800
      2 C02          1.3450     0.0000     0.0000 cd         1 1MJ      -0.082100
      3 N03          1.8060     0.0000     1.2850 na         1 1MJ      -0.170400
      4 C04          0.7270    -0.0010     2.1440 ca         1 1MJ      -0.188500
      5 C05         -0.4380     0.0050     1.3490 ca         1 1MJ       0.453100
      6 N06         -1.6450     0.0060     1.9160 nb         1 1MJ      -0.664000
      7 C07         -1.7940     0.0030     3.2180 ca         1 1MJ       0.440200
      8 C08         -0.6830    -0.0030     4.0750 ca         1 1MJ      -0.321900
      9 C09          0.6060    -0.0020     3.5240 ca         1 1MJ      -0.035000
     10 C10         -0.8680    -0.0070     5.5320 c          1 1MJ       0.588500
     11 O11          0.0970    -0.0120     6.2650 o          1 1MJ      -0.532100
     12 H1          -0.6370     0.0000    -0.8760 ha         1 1MJ       0.167000
     13 H2           1.9690    -0.0000    -0.8860 h4         1 1MJ       0.172000
     14 H3           2.7680     0.0000     1.5580 hn         1 1MJ       0.303700
     15 H4          -2.7920     0.0020     3.6400 h4         1 1MJ       0.025100
     16 H5           1.4830    -0.0060     4.1600 ha         1 1MJ       0.154000
     17 H7          -1.8670    -0.0050     5.9510 h4         1 1MJ       0.003200
@<TRIPOS>BOND
     1    11    10 2
     2    10     8 1
     3     7     8 ar
     4     7     6 ar
     5     8     9 ar
     6     6     5 ar
     7     9     4 ar
     8     5     4 ar
     9     5     1 1
    10     4     3 1
    11     1     2 2
    12     3     2 1
    13     1    12 1
    14     2    13 1
    15     3    14 1
    16     7    15 1
    17     9    16 1
    18    10    17 1
@<TRIPOS>SUBSTRUCTURE
     1 1MJ         1 TEMP              0 ****  ****    0 ROOT
