@<TRIPOS>MOLECULE
1ML
   75    78     1     0     0
SMALL
bcc


@<TRIPOS>ATOM
      1 C01          0.0000     0.0000     0.0000 ca         1 1ML      -0.075600
      2 C02          1.3970     0.0000     0.0000 ca         1 1ML      -0.082000
      3 C03          2.0860     0.0000     1.2000 ca         1 1ML       0.058100
      4 C04          1.3930     0.0000     2.4040 ca         1 1ML      -0.136000
      5 C05          0.0130    -0.0010     2.4150 ca         1 1ML      -0.118000
      6 C06         -0.6930    -0.0010     1.2190 ca         1 1ML      -0.047400
      7 O07          3.4460    -0.0000     1.2000 os         1 1ML      -0.218200
      8 C08          4.0840     1.1660     0.9130 ca         1 1ML       0.154100
      9 C09          3.3520     2.2840     0.5400 ca         1 1ML      -0.156000
     10 C10          4.0000     3.4680     0.2490 ca         1 1ML      -0.076500
     11 C11          5.3850     3.5400     0.3310 ca         1 1ML      -0.154400
     12 C12          6.1170     2.4210     0.7050 ca         1 1ML      -0.076500
     13 C13          5.4670     1.2390     1.0000 ca         1 1ML      -0.156000
     14 C14         -0.7400     0.0060    -1.2740 c          1 1ML       0.977200
     15 O15         -0.0750     0.1210    -2.4400 o          1 1ML      -0.880800
     16 O16         -1.9520    -0.0950    -1.2730 o          1 1ML      -0.880800
     17 N17         -2.0870     0.0010     1.2310 n          1 1ML       0.023000
     18 C18         -2.8180     1.2570     1.4090 c3         1 1ML      -0.005300
     19 C19         -2.4490     1.8770     2.7580 c3         1 1ML      -0.033600
     20 C20         -2.4460     2.2260     0.2840 c3         1 1ML      -0.033600
     21 C21         -2.7630    -1.1560     1.0800 c          1 1ML       0.620100
     22 C23         -4.2650    -1.1420     0.9640 c3         1 1ML      -0.123700
     23 O22         -2.1620    -2.2080     1.0360 o          1 1ML      -0.655100
     24 C24         -4.7600    -2.5340     0.5690 c3         1 1ML      -0.029400
     25 C25         -6.2850    -2.5200     0.4520 c3         1 1ML      -0.023400
     26 C26         -6.8970    -2.1230     1.7970 c3         1 1ML      -0.054700
     27 C27         -6.4020    -0.7300     2.1920 c3         1 1ML      -0.023400
     28 C28         -4.8770    -0.7460     2.3090 c3         1 1ML      -0.029400
     29 C29         -8.4220    -2.1090     1.6790 c3         1 1ML       0.005900
     30 N30          6.0420     4.7410     0.0350 ns         1 1ML      -0.022100
     31 C31          7.2540     4.7170    -0.5520 c          1 1ML       0.580700
     32 O32          7.7360     3.6600    -0.9120 o          1 1ML      -0.641100
     33 C33          7.9980     5.9760    -0.7600 ca         1 1ML      -0.196600
     34 C34          9.2560     5.9540    -1.3690 ca         1 1ML      -0.016500
     35 C35          9.9440     7.1300    -1.5620 ca         1 1ML      -0.191000
     36 C36          9.3920     8.3370    -1.1510 ca         1 1ML       0.166100
     37 C37          8.1420     8.3630    -0.5450 ca         1 1ML      -0.191000
     38 C38          7.4440     7.1920    -0.3540 ca         1 1ML      -0.016500
     39 O39         10.0750     9.4940    -1.3420 os         1 1ML      -0.308900
     40 C40          9.4490    10.6990    -0.8970 c3         1 1ML       0.244700
     41 H1           1.9400     0.0000    -0.9380 ha         1 1ML       0.147000
     42 H2           1.9390     0.0000     3.3390 ha         1 1ML       0.098000
     43 H3          -0.5200    -0.0010     3.3580 ha         1 1ML       0.099000
     44 H4           2.2720     2.2270     0.4770 ha         1 1ML       0.129000
     45 H5           3.4280     4.3410    -0.0420 ha         1 1ML       0.114500
     46 H6           7.1970     2.4770     0.7710 ha         1 1ML       0.114500
     47 H7           6.0380     0.3650     1.2920 ha         1 1ML       0.129000
     48 H9          -3.8830     1.0630     1.3800 h1         1 1ML       0.052700
     49 H10         -3.2200     2.5770     3.0570 hc         1 1ML       0.014033
     50 H11         -2.3620     1.0950     3.5030 hc         1 1ML       0.014033
     51 H12         -1.5030     2.3980     2.6690 hc         1 1ML       0.014033
     52 H13         -2.9070     3.1890     0.4690 hc         1 1ML       0.014033
     53 H14         -1.3700     2.3430     0.2480 hc         1 1ML       0.014033
     54 H15         -2.7990     1.8340    -0.6620 hc         1 1ML       0.014033
     55 H16         -4.5660    -0.4260     0.2080 hc         1 1ML       0.059700
     56 H17         -4.4640    -3.2490     1.3270 hc         1 1ML       0.028950
     57 H18         -4.3280    -2.8130    -0.3850 hc         1 1ML       0.028950
     58 H19         -6.5800    -1.8010    -0.3040 hc         1 1ML       0.009950
     59 H20         -6.6340    -3.5070     0.1750 hc         1 1ML       0.009950
     60 H21         -6.5950    -2.8390     2.5530 hc         1 1ML       0.025700
     61 H22         -6.6970    -0.0150     1.4340 hc         1 1ML       0.009950
     62 H23         -6.8340    -0.4520     3.1460 hc         1 1ML       0.009950
     63 H24         -4.5810    -1.4650     3.0640 hc         1 1ML       0.028950
     64 H25         -4.5270     0.2410     2.5870 hc         1 1ML       0.028950
     65 H26         -8.7720    -3.0960     1.4010 hc         1 1ML      -0.002967
     66 H27         -8.7190    -1.3940     0.9210 hc         1 1ML      -0.002967
     67 H28         -8.8560    -1.8270     2.6310 hc         1 1ML      -0.002967
     68 H29          5.5690     5.6130     0.1680 hn         1 1ML       0.163500
     69 H30          9.6870     5.0140    -1.6900 ha         1 1ML       0.115500
     70 H31         10.9200     7.1140    -2.0340 ha         1 1ML       0.118500
     71 H32          7.7130     9.3070    -0.2280 ha         1 1ML       0.118500
     72 H33          6.4690     7.2130     0.1180 ha         1 1ML       0.115500
     73 H34          9.2700    10.6390     0.1700 h1         1 1ML      -0.002967
     74 H35         10.0970    11.5410    -1.1080 h1         1 1ML      -0.002967
     75 H36          8.5070    10.8290    -1.4150 h1         1 1ML      -0.002967
@<TRIPOS>BOND
     1     1     2 ar  
     2     1     6 ar  
     3     1    14 1   
     4     2     3 ar  
     5     2    41 1   
     6     3     4 ar  
     7     3     7 1   
     8     4     5 ar  
     9     4    42 1   
    10     5     6 ar  
    11     5    43 1   
    12     6    17 1   
    13     7     8 1   
    14     8     9 ar  
    15     8    13 ar  
    16     9    10 ar  
    17     9    44 1   
    18    10    11 ar  
    19    10    45 1   
    20    11    12 ar  
    21    11    30 1   
    22    12    13 ar  
    23    12    46 1   
    24    13    47 1   
    25    14    15 1   
    26    14    16 1   
    27    17    18 1   
    28    17    21 1   
    29    18    19 1   
    30    18    20 1   
    31    18    48 1   
    32    19    49 1   
    33    19    50 1   
    34    19    51 1   
    35    20    52 1   
    36    20    53 1   
    37    20    54 1   
    38    21    22 1   
    39    21    23 2   
    40    22    24 1   
    41    22    28 1   
    42    22    55 1   
    43    24    25 1   
    44    24    56 1   
    45    24    57 1   
    46    25    26 1   
    47    25    58 1   
    48    25    59 1   
    49    26    27 1   
    50    26    29 1   
    51    26    60 1   
    52    27    28 1   
    53    27    61 1   
    54    27    62 1   
    55    28    63 1   
    56    28    64 1   
    57    29    65 1   
    58    29    66 1   
    59    29    67 1   
    60    30    31 1   
    61    30    68 1   
    62    31    32 2   
    63    31    33 1   
    64    33    34 ar  
    65    33    38 ar  
    66    34    35 ar  
    67    34    69 1   
    68    35    36 ar  
    69    35    70 1   
    70    36    37 ar  
    71    36    39 1   
    72    37    38 ar  
    73    37    71 1   
    74    38    72 1   
    75    39    40 1   
    76    40    73 1   
    77    40    74 1   
    78    40    75 1   
@<TRIPOS>SUBSTRUCTURE
     1 1ML         1 TEMP              0 ****  ****    0 ROOT
