@<TRIPOS>MOLECULE
1ML
   75    78     1     0     0
SMALL
bcc


@<TRIPOS>ATOM
      1 C01         -0.2770     0.0870    -0.0870 ca         1 1ML      -0.092600
      2 C02          1.0760     0.3560    -0.3090 ca         1 1ML      -0.137000
      3 C03          1.9210     0.6280     0.7670 ca         1 1ML       0.066100
      4 C04          1.4420     0.6300     2.0830 ca         1 1ML      -0.162000
      5 C05          0.0960     0.3690     2.3060 ca         1 1ML      -0.137000
      6 C06         -0.7830     0.0950     1.2320 ca         1 1ML       0.045600
      7 O07          3.2500     1.0310     0.5890 os         1 1ML      -0.257200
      8 C08          4.0640     0.1870    -0.1480 ca         1 1ML       0.116100
      9 C09          5.2700     0.7610    -0.5870 ca         1 1ML      -0.150500
     10 C10          6.1840    -0.0150    -1.2830 ca         1 1ML      -0.131500
     11 C11          5.9140    -1.3760    -1.5620 ca         1 1ML       0.015600
     12 C12          4.6970    -1.9330    -1.1180 ca         1 1ML      -0.131500
     13 C13          3.7810    -1.1570    -0.4160 ca         1 1ML      -0.150500
     14 C14         -1.1440    -0.2230    -1.3080 c          1 1ML       0.916200
     15 O15         -1.7280     0.7380    -1.8740 o          1 1ML      -0.812300
     16 O16         -1.1890    -1.4270    -1.6820 o          1 1ML      -0.812300
     17 N17         -2.1560    -0.1410     1.5170 n          1 1ML      -0.385000
     18 C18         -3.0250     1.0150     1.7180 c3         1 1ML       0.119700
     19 C19         -3.1220     1.4350     3.1890 c3         1 1ML      -0.117100
     20 C20         -2.6310     2.2270     0.8770 c3         1 1ML      -0.117100
     21 C21         -2.6970    -1.4200     1.5920 c          1 1ML       0.689100
     22 C23         -1.8390    -2.6190     1.2080 c3         1 1ML      -0.143700
     23 O22         -3.8780    -1.5630     1.9800 o          1 1ML      -0.648100
     24 C24         -0.9320    -3.0030     2.3670 c3         1 1ML      -0.065400
     25 C25         -0.1090    -4.2280     2.0240 c3         1 1ML      -0.071400
     26 C26         -0.9980    -5.4010     1.6380 c3         1 1ML      -0.066700
     27 C27         -1.9110    -5.0090     0.4850 c3         1 1ML      -0.071400
     28 C28         -2.7380    -3.7870     0.8260 c3         1 1ML      -0.065400
     29 C29         -0.1600    -6.6060     1.2700 c3         1 1ML      -0.087100
     30 N30          6.8640    -2.1090    -2.3020 ns         1 1ML      -0.464100
     31 C31          6.9870    -3.4850    -2.3610 c          1 1ML       0.677700
     32 O32          6.2330    -4.2690    -1.7520 o          1 1ML      -0.589100
     33 C33          8.0830    -4.0050    -3.2340 ca         1 1ML      -0.174600
     34 C34          7.8070    -5.1070    -4.0480 ca         1 1ML      -0.059500
     35 C35          8.7940    -5.6410    -4.8740 ca         1 1ML      -0.189500
     36 C36         10.0720    -5.0680    -4.8700 ca         1 1ML       0.138100
     37 C37         10.3640    -3.9680    -4.0410 ca         1 1ML      -0.189500
     38 C38          9.3660    -3.4440    -3.2290 ca         1 1ML      -0.059500
     39 O39         11.1280    -5.5070    -5.6430 os         1 1ML      -0.328900
     40 C40         10.8670    -6.6230    -6.4870 c3         1 1ML       0.113700
     41 H1           1.4660     0.3520    -1.3380 ha         1 1ML       0.153000
     42 H2           2.1220     0.8490     2.9170 ha         1 1ML       0.130000
     43 H3          -0.2840     0.3810     3.3390 ha         1 1ML       0.127000
     44 H4           5.4760     1.8190    -0.3720 ha         1 1ML       0.156000
     45 H5           7.1230     0.4490    -1.6220 ha         1 1ML       0.144500
     46 H6           4.4610    -2.9910    -1.3170 ha         1 1ML       0.144500
     47 H7           2.8250    -1.5950    -0.0870 ha         1 1ML       0.156000
     48 H9          -4.0620     0.6890     1.3920 h1         1 1ML       0.073700
     49 H10         -2.1280     1.7610     3.5790 hc         1 1ML       0.042033
     50 H11         -3.8360     2.2890     3.2730 hc         1 1ML       0.042033
     51 H12         -3.4970     0.5890     3.8120 hc         1 1ML       0.042033
     52 H13         -1.6940     2.6920     1.2640 hc         1 1ML       0.042033
     53 H14         -2.4680     1.9320    -0.1950 hc         1 1ML       0.042033
     54 H15         -3.4530     2.9800     0.9300 hc         1 1ML       0.042033
     55 H16         -1.2160    -2.3470     0.2990 hc         1 1ML       0.137700
     56 H17         -1.5540    -3.2100     3.2770 hc         1 1ML       0.046700
     57 H18         -0.2470    -2.1470     2.6070 hc         1 1ML       0.046700
     58 H19          0.5240    -4.5120     2.9040 hc         1 1ML       0.039450
     59 H20          0.5800    -3.9890     1.1720 hc         1 1ML       0.039450
     60 H21         -1.6410    -5.6660     2.5250 hc         1 1ML       0.036700
     61 H22         -2.5930    -5.8650     0.2420 hc         1 1ML       0.039450
     62 H23         -1.2920    -4.7960    -0.4270 hc         1 1ML       0.039450
     63 H24         -3.4380    -4.0160     1.6720 hc         1 1ML       0.046700
     64 H25         -3.3590    -3.4920    -0.0590 hc         1 1ML       0.046700
     65 H26          0.4890    -6.3780     0.3900 hc         1 1ML       0.026700
     66 H27          0.4950    -6.9000     2.1250 hc         1 1ML       0.026700
     67 H28         -0.8170    -7.4700     1.0100 hc         1 1ML       0.026700
     68 H29          7.5190    -1.5650    -2.8170 hn         1 1ML       0.312500
     69 H30          6.8000    -5.5570    -4.0250 ha         1 1ML       0.148500
     70 H31          8.5600    -6.5040    -5.5120 ha         1 1ML       0.145000
     71 H32         11.3770    -3.5410    -4.0460 ha         1 1ML       0.145000
     72 H33          9.6020    -2.5940    -2.5700 ha         1 1ML       0.148500
     73 H34         11.8450    -6.7940    -7.0030 h1         1 1ML       0.045033
     74 H35         10.0680    -6.3780    -7.2280 h1         1 1ML       0.045033
     75 H36         10.5790    -7.5170    -5.8810 h1         1 1ML       0.045033
@<TRIPOS>BOND
     1     1     2 ar  
     2     1     6 ar  
     3     1    14 1   
     4     2     3 ar  
     5     2    41 1   
     6     3     4 ar  
     7     3     7 1   
     8     4     5 ar  
     9     4    42 1   
    10     5     6 ar  
    11     5    43 1   
    12     6    17 1   
    13     7     8 1   
    14     8     9 ar  
    15     8    13 ar  
    16     9    10 ar  
    17     9    44 1   
    18    10    11 ar  
    19    10    45 1   
    20    11    12 ar  
    21    11    30 1   
    22    12    13 ar  
    23    12    46 1   
    24    13    47 1   
    25    14    15 1   
    26    14    16 1   
    27    17    18 1   
    28    17    21 1   
    29    18    19 1   
    30    18    20 1   
    31    18    48 1   
    32    19    49 1   
    33    19    50 1   
    34    19    51 1   
    35    20    52 1   
    36    20    53 1   
    37    20    54 1   
    38    21    22 1   
    39    21    23 2   
    40    22    24 1   
    41    22    28 1   
    42    22    55 1   
    43    24    25 1   
    44    24    56 1   
    45    24    57 1   
    46    25    26 1   
    47    25    58 1   
    48    25    59 1   
    49    26    27 1   
    50    26    29 1   
    51    26    60 1   
    52    27    28 1   
    53    27    61 1   
    54    27    62 1   
    55    28    63 1   
    56    28    64 1   
    57    29    65 1   
    58    29    66 1   
    59    29    67 1   
    60    30    31 1   
    61    30    68 1   
    62    31    32 2   
    63    31    33 1   
    64    33    34 ar  
    65    33    38 ar  
    66    34    35 ar  
    67    34    69 1   
    68    35    36 ar  
    69    35    70 1   
    70    36    37 ar  
    71    36    39 1   
    72    37    38 ar  
    73    37    71 1   
    74    38    72 1   
    75    39    40 1   
    76    40    73 1   
    77    40    74 1   
    78    40    75 1   
@<TRIPOS>SUBSTRUCTURE
     1 1ML         1 TEMP              0 ****  ****    0 ROOT
