@<TRIPOS>MOLECULE
molecule
   75    78     1     0     0
SMALL
bcc


@<TRIPOS>ATOM
      1 C01          0.0000     0.0000     0.0000 ca         1 1ML      -0.087600
      2 C02          1.3970     0.0000     0.0000 ca         1 1ML      -0.104000
      3 C03          2.0860     0.0000     1.2000 ca         1 1ML       0.052100
      4 C04          1.3930     0.0000     2.4040 ca         1 1ML      -0.151000
      5 C05          0.0130    -0.0010     2.4150 ca         1 1ML      -0.145000
      6 C06         -0.6930    -0.0010     1.2190 ca         1 1ML       0.082600
      7 O07          3.4460    -0.0000     1.2000 os         1 1ML      -0.249200
      8 C08          4.0840     1.1660     0.9130 ca         1 1ML       0.141100
      9 C09          3.3520     2.2840     0.5400 ca         1 1ML      -0.167500
     10 C10          4.0000     3.4680     0.2490 ca         1 1ML      -0.111000
     11 C11          5.3850     3.5400     0.3310 ca         1 1ML      -0.000400
     12 C12          6.1170     2.4210     0.7050 ca         1 1ML      -0.111000
     13 C13          5.4670     1.2390     1.0000 ca         1 1ML      -0.167500
     14 C14         -0.7400     0.0060    -1.2740 c          1 1ML       0.887200
     15 O15         -0.0750     0.1210    -2.4400 o          1 1ML      -0.831300
     16 O16         -1.9520    -0.0950    -1.2730 o          1 1ML      -0.831300
     17 N17         -2.0870     0.0010     1.2310 n          1 1ML      -0.371000
     18 C18         -2.8180     1.2570     1.4090 c3         1 1ML       0.111700
     19 C19         -2.4490     1.8770     2.7580 c3         1 1ML      -0.111600
     20 C20         -2.4460     2.2260     0.2840 c3         1 1ML      -0.111600
     21 C21         -2.7630    -1.1560     1.0800 c          1 1ML       0.707100
     22 C23         -4.2650    -1.1420     0.9640 c3         1 1ML      -0.136700
     23 O22         -2.1620    -2.2080     1.0360 o          1 1ML      -0.609100
     24 C24         -4.7600    -2.5340     0.5690 c3         1 1ML      -0.073400
     25 C25         -6.2850    -2.5200     0.4520 c3         1 1ML      -0.075900
     26 C26         -6.8970    -2.1230     1.7970 c3         1 1ML      -0.074700
     27 C27         -6.4020    -0.7300     2.1920 c3         1 1ML      -0.075900
     28 C28         -4.8770    -0.7460     2.3090 c3         1 1ML      -0.073400
     29 C29         -8.4220    -2.1090     1.6790 c3         1 1ML      -0.088100
     30 N30          6.0420     4.7410     0.0350 ns         1 1ML      -0.467100
     31 C31          7.2540     4.7170    -0.5520 c          1 1ML       0.672700
     32 O32          7.7360     3.6600    -0.9120 o          1 1ML      -0.597100
     33 C33          7.9980     5.9760    -0.7600 ca         1 1ML      -0.181600
     34 C34          9.2560     5.9540    -1.3690 ca         1 1ML      -0.048500
     35 C35          9.9440     7.1300    -1.5620 ca         1 1ML      -0.203000
     36 C36          9.3920     8.3370    -1.1510 ca         1 1ML       0.157100
     37 C37          8.1420     8.3630    -0.5450 ca         1 1ML      -0.203000
     38 C38          7.4440     7.1920    -0.3540 ca         1 1ML      -0.048500
     39 O39         10.0750     9.4940    -1.3420 os         1 1ML      -0.328900
     40 C40          9.4490    10.6990    -0.8970 c3         1 1ML       0.128700
     41 H1           1.9400     0.0000    -0.9380 ha         1 1ML       0.174000
     42 H2           1.9390     0.0000     3.3390 ha         1 1ML       0.121000
     43 H3          -0.5200    -0.0010     3.3580 ha         1 1ML       0.122000
     44 H4           2.2720     2.2270     0.4770 ha         1 1ML       0.153000
     45 H5           3.4280     4.3410    -0.0420 ha         1 1ML       0.139000
     46 H6           7.1970     2.4770     0.7710 ha         1 1ML       0.139000
     47 H7           6.0380     0.3650     1.2920 ha         1 1ML       0.153000
     48 H9          -3.8830     1.0630     1.3800 h1         1 1ML       0.062700
     49 H10         -3.2200     2.5770     3.0570 hc         1 1ML       0.041033
     50 H11         -2.3620     1.0950     3.5030 hc         1 1ML       0.041033
     51 H12         -1.5030     2.3980     2.6690 hc         1 1ML       0.041033
     52 H13         -2.9070     3.1890     0.4690 hc         1 1ML       0.041033
     53 H14         -1.3700     2.3430     0.2480 hc         1 1ML       0.041033
     54 H15         -2.7990     1.8340    -0.6620 hc         1 1ML       0.041033
     55 H16         -4.5660    -0.4260     0.2080 hc         1 1ML       0.083700
     56 H17         -4.4640    -3.2490     1.3270 hc         1 1ML       0.053450
     57 H18         -4.3280    -2.8130    -0.3850 hc         1 1ML       0.053450
     58 H19         -6.5800    -1.8010    -0.3040 hc         1 1ML       0.036450
     59 H20         -6.6340    -3.5070     0.1750 hc         1 1ML       0.036450
     60 H21         -6.5950    -2.8390     2.5530 hc         1 1ML       0.047700
     61 H22         -6.6970    -0.0150     1.4340 hc         1 1ML       0.036450
     62 H23         -6.8340    -0.4520     3.1460 hc         1 1ML       0.036450
     63 H24         -4.5810    -1.4650     3.0640 hc         1 1ML       0.053450
     64 H25         -4.5270     0.2410     2.5870 hc         1 1ML       0.053450
     65 H26         -8.7720    -3.0960     1.4010 hc         1 1ML       0.027367
     66 H27         -8.7190    -1.3940     0.9210 hc         1 1ML       0.027367
     67 H28         -8.8560    -1.8270     2.6310 hc         1 1ML       0.027367
     68 H29          5.5690     5.6130     0.1680 hn         1 1ML       0.316500
     69 H30          9.6870     5.0140    -1.6900 ha         1 1ML       0.146000
     70 H31         10.9200     7.1140    -2.0340 ha         1 1ML       0.140500
     71 H32          7.7130     9.3070    -0.2280 ha         1 1ML       0.140500
     72 H33          6.4690     7.2130     0.1180 ha         1 1ML       0.146000
     73 H34          9.2700    10.6390     0.1700 h1         1 1ML       0.041367
     74 H35         10.0970    11.5410    -1.1080 h1         1 1ML       0.041367
     75 H36          8.5070    10.8290    -1.4150 h1         1 1ML       0.041367
@<TRIPOS>BOND
     1    23    21 2   
     2    20    18 1   
     3    18    19 1   
     4    18    17 1   
     5    21    17 1   
     6    21    22 1   
     7    28    22 1   
     8    28    27 1   
     9    17     6 1   
    10    16    14 1   
    11    22    24 1   
    12    27    26 1   
    13    14    15 1   
    14    14     1 1   
    15    24    25 1   
    16    26    25 1   
    17    26    29 1   
    18     6     1 ar  
    19     6     5 ar  
    20     1     2 ar  
    21     5     4 ar  
    22     2     3 ar  
    23     4     3 ar  
    24     3     7 1   
    25     7     8 1   
    26    13     8 ar  
    27    13    12 ar  
    28     8     9 ar  
    29    12    11 ar  
    30     9    10 ar  
    31    11    10 ar  
    32    11    30 1   
    33    32    31 2   
    34    30    31 1   
    35    31    33 1   
    36    33    34 ar  
    37    33    38 ar  
    38    34    35 ar  
    39    38    37 ar  
    40    35    36 ar  
    41    37    36 ar  
    42    36    39 1   
    43    40    39 1   
    44     2    41 1   
    45     4    42 1   
    46     5    43 1   
    47     9    44 1   
    48    10    45 1   
    49    12    46 1   
    50    13    47 1   
    51    18    48 1   
    52    19    49 1   
    53    19    50 1   
    54    19    51 1   
    55    20    52 1   
    56    20    53 1   
    57    20    54 1   
    58    22    55 1   
    59    24    56 1   
    60    24    57 1   
    61    25    58 1   
    62    25    59 1   
    63    26    60 1   
    64    27    61 1   
    65    27    62 1   
    66    28    63 1   
    67    28    64 1   
    68    29    65 1   
    69    29    66 1   
    70    29    67 1   
    71    30    68 1   
    72    34    69 1   
    73    35    70 1   
    74    37    71 1   
    75    38    72 1   
    76    40    73 1   
    77    40    74 1   
    78    40    75 1   
@<TRIPOS>SUBSTRUCTURE
     1 1ML         1 TEMP              0 ****  ****    0 ROOT
