@<TRIPOS>MOLECULE
molecule
   42    43     1     0     0
SMALL
bcc


@<TRIPOS>ATOM
      1 C4           0.0000     0.0000     0.0000 ca         1 1MM      -0.099000
      2 C5           1.4170     0.0000     0.0000 ca         1 1MM      -0.063000
      3 C6           2.1500     0.0000     1.2260 ca         1 1MM      -0.004000
      4 C1           1.4660     0.0020     2.5020 ca         1 1MM      -0.086600
      5 C2           0.0150     0.0030     2.5030 ca         1 1MM      -0.417500
      6 C3          -0.7620     0.0010     1.2540 ca         1 1MM       0.037000
      7 S7          -1.2610     0.0130     3.7970 sy         1 1MM       1.544200
      8 N8          -0.6490     0.9350     5.0650 ny         1 1MM      -0.488700
      9 C9          -0.3070     2.2150     4.9280 c          1 1MM       0.757100
     10 N10          0.1120     2.6350     6.0870 ns         1 1MM      -0.546400
     11 C2'          0.5540     3.8320     6.4150 ca         1 1MM       0.822900
     12 N1'          0.9570     4.1260     7.7610 nb         1 1MM      -0.786000
     13 C6'          1.4400     5.4320     8.1480 ca         1 1MM       0.745300
     14 N5'          1.5110     6.4550     7.1390 nb         1 1MM      -0.793000
     15 C4'          1.1040     6.1470     5.7690 ca         1 1MM       0.892300
     16 N3'          0.6340     4.8520     5.4290 nb         1 1MM      -0.781000
     17 O7A         -2.4370     0.7340     3.3560 o          1 1MM      -0.577300
     18 O7B         -1.4250    -1.2510     4.4420 o          1 1MM      -0.577300
     19 O9          -0.4110     2.8160     3.8150 o          1 1MM      -0.724100
     20 C11          2.1540     0.0000     3.8840 c          1 1MM       0.770700
     21 O12          2.7990     1.2790     4.0020 os         1 1MM      -0.266900
     22 C13          3.5150     1.5380     5.2020 c3         1 1MM       0.121700
     23 O11          2.0950    -0.9730     4.6790 o          1 1MM      -0.732000
     24 O4'          1.1660     7.1190     4.7800 os         1 1MM      -0.448100
     25 C5'          1.5380     8.4810     4.6230 c3         1 1MM       0.124700
     26 C7'          1.8620     5.7330     9.5750 c3         1 1MM      -0.148400
     27 H4          -0.5310    -0.0010    -0.9440 ha         1 1MM       0.176000
     28 H5           1.9520    -0.0010    -0.9420 ha         1 1MM       0.175000
     29 H6           3.2330    -0.0000     1.2010 ha         1 1MM       0.201000
     30 H3          -1.7960    -0.3220     1.2590 ha         1 1MM       0.165000
     31 HN8          0.1710     0.4600     5.3850 hn         1 1MM       0.463300
     32 H10          0.0940     1.9610     6.8260 hn         1 1MM       0.356500
     33 H131         3.7110     2.6010     5.2840 h1         1 1MM       0.095367
     34 H132         2.9260     1.2140     6.0520 h1         1 1MM       0.095367
     35 H133         4.4540     0.9980     5.1870 h1         1 1MM       0.095367
     36 H5'1         2.5810     8.6040     4.8900 h1         1 1MM       0.065367
     37 H5'2         0.9260     9.1000     5.2680 h1         1 1MM       0.065367
     38 H5'3         1.3920     8.7790     3.5920 h1         1 1MM       0.065367
     39 H7'1         1.6450     4.8790    10.2040 hc         1 1MM       0.080033
     40 H7'2         2.9250     5.9400     9.6000 hc         1 1MM       0.080033
     41 H7'3         1.3180     6.5970     9.9370 hc         1 1MM       0.080033
     42 H82         -1.3290     0.8860     5.7990 hn         1 1MM       0.463300
@<TRIPOS>BOND
     1     1     2 ar  
     2     1     6 ar  
     3     1    27 1   
     4     2     3 ar  
     5     2    28 1   
     6     3     4 ar  
     7     3    29 1   
     8     4     5 ar  
     9     4    20 1   
    10     5     6 ar  
    11     5     7 1   
    12     6    30 1   
    13     7     8 1   
    14     7    17 2   
    15     7    18 2   
    16     8     9 1   
    17     8    31 1   
    18     9    10 1   
    19     9    19 2   
    20    10    11 1   
    21    10    32 1   
    22    11    12 ar  
    23    11    16 ar  
    24    12    13 ar  
    25    13    14 ar  
    26    13    26 1   
    27    14    15 ar  
    28    15    16 ar  
    29    15    24 1   
    30    20    21 1   
    31    20    23 2   
    32    21    22 1   
    33    22    33 1   
    34    22    34 1   
    35    22    35 1   
    36    24    25 1   
    37    25    36 1   
    38    25    37 1   
    39    25    38 1   
    40    26    39 1   
    41    26    40 1   
    42    26    41 1   
    43    42     8 1   
@<TRIPOS>SUBSTRUCTURE
     1 1MM         1 TEMP              0 ****  ****    0 ROOT
