@<TRIPOS>MOLECULE
1MM
   41    42     1     0     0
SMALL
bcc


@<TRIPOS>ATOM
      1 C4           0.0000     0.0000     0.0000 ca         1 1MM      -0.097000
      2 C5           1.3840     0.0000     0.0000 ca         1 1MM      -0.067000
      3 C6           2.0760     0.0000     1.1920 ca         1 1MM      -0.078000
      4 C1           1.3780     0.0020     2.4010 ca         1 1MM      -0.062600
      5 C2          -0.0180    -0.0030     2.3950 ca         1 1MM      -0.089500
      6 C3          -0.6990     0.0020     1.1950 ca         1 1MM       0.014000
      7 S7          -0.9090    -0.0010     3.9150 sy         1 1MM       1.065900
      8 N8          -0.4690     1.3620     4.7450 ns         1 1MM      -0.301300
      9 C9          -0.7070     2.5800     4.2170 c          1 1MM       0.607100
     10 N10         -0.2630     3.6850     4.8460 ns         1 1MM      -0.094400
     11 C2'         -0.6030     4.9390     4.3650 ca         1 1MM       0.651900
     12 N1'         -0.0800     6.0290     4.9200 nb         1 1MM      -0.759000
     13 C6'         -0.4040     7.2260     4.4610 ca         1 1MM       0.692300
     14 N5'         -1.2480     7.3430     3.4510 nb         1 1MM      -0.717000
     15 C4'         -1.7730     6.2580     2.8920 ca         1 1MM       0.879300
     16 N3'         -1.4470     5.0540     3.3470 nb         1 1MM      -0.734000
     17 O7A         -2.2730     0.1850     3.5620 o          1 1MM      -0.559800
     18 O7B         -0.3950    -1.0920     4.6640 o          1 1MM      -0.559800
     19 O9          -1.3240     2.6790     3.1740 o          1 1MM      -0.613100
     20 C11          2.1130     0.0020     3.6830 c          1 1MM       0.713700
     21 O12          3.4600     0.0290     3.6860 os         1 1MM      -0.421900
     22 C13          4.1850    -0.0820     4.9400 c3         1 1MM       0.282700
     23 O11          1.5040    -0.0220     4.7330 o          1 1MM      -0.580000
     24 O4'         -2.6370     6.3790     1.8580 os         1 1MM      -0.382100
     25 C5'         -3.1150     5.0660     1.5610 c3         1 1MM       0.222700
     26 C7'          0.1900     8.4590     5.0920 c3         1 1MM      -0.032400
     27 H4          -0.5390     0.0020    -0.9400 ha         1 1MM       0.110000
     28 H5           1.9240    -0.0020    -0.9390 ha         1 1MM       0.107000
     29 H6           3.1600     0.0020     1.1900 ha         1 1MM       0.121000
     30 H3          -1.7820     0.0010     1.1870 ha         1 1MM       0.139000
     31 HN8         -0.0740     1.2840     5.6610 hn         1 1MM       0.243500
     32 H10          0.2840     3.6010     5.6800 hn         1 1MM       0.179500
     33 H131         5.2500    -0.0830     4.7420 h1         1 1MM       0.001700
     34 H132         3.9090    -1.0050     5.4360 h1         1 1MM       0.001700
     35 H133         3.9360     0.7580     5.5760 h1         1 1MM       0.001700
     36 H5'1        -3.5610     4.6340     2.4500 h1         1 1MM       0.015033
     37 H5'2        -2.2890     4.4460     1.2350 h1         1 1MM       0.015033
     38 H5'3        -3.8580     5.1210     0.7750 h1         1 1MM       0.015033
     39 H7'1         1.2480     8.5060     4.8650 hc         1 1MM       0.023367
     40 H7'2         0.0530     8.4170     6.1650 hc         1 1MM       0.023367
     41 H7'3        -0.3040     9.3390     4.6980 hc         1 1MM       0.023367
@<TRIPOS>BOND
     1     1     2 ar  
     2     1     6 ar  
     3     1    27 1   
     4     2     3 ar  
     5     2    28 1   
     6     3     4 ar  
     7     3    29 1   
     8     4     5 ar  
     9     4    20 1   
    10     5     6 ar  
    11     5     7 1   
    12     6    30 1   
    13     7     8 1   
    14     7    17 2   
    15     7    18 2   
    16     8     9 1   
    17     8    31 1   
    18     9    10 1   
    19     9    19 2   
    20    10    11 1   
    21    10    32 1   
    22    11    12 ar  
    23    11    16 ar  
    24    12    13 ar  
    25    13    14 ar  
    26    13    26 1   
    27    14    15 ar  
    28    15    16 ar  
    29    15    24 1   
    30    20    21 1   
    31    20    23 2   
    32    21    22 1   
    33    22    33 1   
    34    22    34 1   
    35    22    35 1   
    36    24    25 1   
    37    25    36 1   
    38    25    37 1   
    39    25    38 1   
    40    26    39 1   
    41    26    40 1   
    42    26    41 1   
@<TRIPOS>SUBSTRUCTURE
     1 1MM         1 TEMP              0 ****  ****    0 ROOT
