@<TRIPOS>MOLECULE
1MN
   50    53     1     0     0
SMALL
bcc


@<TRIPOS>ATOM
      1 C3           0.0000     0.0000     0.0000 ca         1 1MN      -0.082000
      2 C2           1.3820     0.0000     0.0000 ca         1 1MN      -0.082000
      3 C1           2.0730     0.0000     1.1990 ca         1 1MN       0.036100
      4 Br1          3.9640     0.0020     1.2010 br         1 1MN      -0.124100
      5 C4           1.3790    -0.0000     2.3970 ca         1 1MN      -0.082000
      6 C5          -0.0030    -0.0010     2.3940 ca         1 1MN      -0.082000
      7 C6          -0.6920     0.0050     1.1960 ca         1 1MN      -0.112300
      8 C7          -2.1990     0.0050     1.1940 c3         1 1MN       0.060000
      9 N1          -2.6840     0.8990     0.1450 n          1 1MN      -0.130800
     10 C8          -2.6700     2.3430     0.3890 c3         1 1MN       0.080300
     11 C9          -3.1390     0.4500    -1.0310 c          1 1MN       0.586500
     12 O1          -3.4930     1.2530    -1.8670 o          1 1MN      -0.677500
     13 C10         -3.2270    -1.0170    -1.3510 c3         1 1MN       0.116100
     14 C11         -4.6860    -1.4700    -1.2630 c3         1 1MN       0.001900
     15 C12         -4.7930    -2.9080    -1.7030 ca         1 1MN      -0.092300
     16 C13         -4.6630    -3.9250    -0.7760 ca         1 1MN      -0.092000
     17 C14         -4.7600    -5.2440    -1.1790 ca         1 1MN      -0.098500
     18 C15         -4.9880    -5.5450    -2.5090 ca         1 1MN      -0.100000
     19 C16         -5.1180    -4.5270    -3.4350 ca         1 1MN      -0.098500
     20 C17         -5.0260    -3.2080    -3.0310 ca         1 1MN      -0.092000
     21 O2          -2.4400    -1.7640    -0.4200 os         1 1MN      -0.382600
     22 C18         -2.7070    -1.4150     0.9410 c3         1 1MN       0.219400
     23 C19         -1.9950    -2.3760     1.8590 ca         1 1MN      -0.098300
     24 C20         -0.7130    -2.7960     1.5570 ca         1 1MN      -0.079500
     25 C21         -0.0580    -3.6760     2.3980 ca         1 1MN      -0.085500
     26 C22         -0.6850    -4.1360     3.5410 ca         1 1MN       0.041100
     27 Br2          0.2100    -5.3410     4.6930 br         1 1MN      -0.127100
     28 C23         -1.9680    -3.7160     3.8430 ca         1 1MN      -0.085500
     29 C24         -2.6200    -2.8310     3.0040 ca         1 1MN      -0.079500
     30 H1          -0.5410     0.0020    -0.9390 ha         1 1MN       0.117000
     31 H2           1.9250    -0.0040    -0.9380 ha         1 1MN       0.120000
     32 H3           1.9190    -0.0030     3.3360 ha         1 1MN       0.120000
     33 H4          -0.5460     0.0010     3.3310 ha         1 1MN       0.117000
     34 H5          -2.5640     0.3500     2.1540 h1         1 1MN       0.045700
     35 H6          -2.6840     2.5300     1.4560 h1         1 1MN       0.017033
     36 H7          -1.7730     2.7730    -0.0410 h1         1 1MN       0.017033
     37 H8          -3.5420     2.7950    -0.0680 h1         1 1MN       0.017033
     38 H9          -2.8530    -1.1880    -2.3530 h1         1 1MN       0.072700
     39 H10         -5.0320    -1.3780    -0.2410 hc         1 1MN       0.034200
     40 H11         -5.2960    -0.8490    -1.9080 hc         1 1MN       0.034200
     41 H12         -4.4840    -3.6890     0.2660 ha         1 1MN       0.106500
     42 H13         -4.6590    -6.0410    -0.4530 ha         1 1MN       0.103000
     43 H14         -5.0630    -6.5780    -2.8250 ha         1 1MN       0.102000
     44 H15         -5.2990    -4.7630    -4.4770 ha         1 1MN       0.103000
     45 H16         -5.1280    -2.4110    -3.7570 ha         1 1MN       0.106500
     46 H17         -3.7740    -1.4550     1.1230 h1         1 1MN       0.029700
     47 H18         -0.2210    -2.4360     0.6610 ha         1 1MN       0.120000
     48 H19          0.9470    -4.0060     2.1610 ha         1 1MN       0.119500
     49 H20         -2.4590    -4.0750     4.7390 ha         1 1MN       0.119500
     50 H21         -3.6250    -2.5010     3.2400 ha         1 1MN       0.120000
@<TRIPOS>BOND
     1     1     2 ar  
     2     1     7 ar  
     3     1    30 1   
     4     2     3 ar  
     5     2    31 1   
     6     3     4 1   
     7     3     5 ar  
     8     5     6 ar  
     9     5    32 1   
    10     6     7 ar  
    11     6    33 1   
    12     7     8 1   
    13     8     9 1   
    14     8    22 1   
    15     8    34 1   
    16     9    10 1   
    17     9    11 1   
    18    10    35 1   
    19    10    36 1   
    20    10    37 1   
    21    11    12 2   
    22    11    13 1   
    23    13    14 1   
    24    13    21 1   
    25    13    38 1   
    26    14    15 1   
    27    14    39 1   
    28    14    40 1   
    29    15    16 ar  
    30    15    20 ar  
    31    16    17 ar  
    32    16    41 1   
    33    17    18 ar  
    34    17    42 1   
    35    18    19 ar  
    36    18    43 1   
    37    19    20 ar  
    38    19    44 1   
    39    20    45 1   
    40    21    22 1   
    41    22    23 1   
    42    22    46 1   
    43    23    24 ar  
    44    23    29 ar  
    45    24    25 ar  
    46    24    47 1   
    47    25    26 ar  
    48    25    48 1   
    49    26    27 1   
    50    26    28 ar  
    51    28    29 ar  
    52    28    49 1   
    53    29    50 1   
@<TRIPOS>SUBSTRUCTURE
     1 1MN         1 TEMP              0 ****  ****    0 ROOT
