@<TRIPOS>MOLECULE
molecule
   50    53     1     0     0
SMALL
bcc


@<TRIPOS>ATOM
      1 C3           0.0000     0.0000     0.0000 ca         1 1MN      -0.107500
      2 C2           1.3820     0.0000     0.0000 ca         1 1MN      -0.105500
      3 C1           2.0730     0.0000     1.1990 ca         1 1MN      -0.015900
      4 Br1          3.9640     0.0020     1.2010 br         1 1MN      -0.092100
      5 C4           1.3790    -0.0000     2.3970 ca         1 1MN      -0.105500
      6 C5          -0.0030    -0.0010     2.3940 ca         1 1MN      -0.107500
      7 C6          -0.6920     0.0050     1.1960 ca         1 1MN      -0.097300
      8 C7          -2.1990     0.0050     1.1940 c3         1 1MN       0.138000
      9 N1          -2.6840     0.8990     0.1450 n          1 1MN      -0.479800
     10 C8          -2.6700     2.3430     0.3890 c3         1 1MN       0.097300
     11 C9          -3.1390     0.4500    -1.0310 c          1 1MN       0.666500
     12 O1          -3.4930     1.2530    -1.8670 o          1 1MN      -0.637500
     13 C10         -3.2270    -1.0170    -1.3510 c3         1 1MN       0.079100
     14 C11         -4.6860    -1.4700    -1.2630 c3         1 1MN      -0.057100
     15 C12         -4.7930    -2.9080    -1.7030 ca         1 1MN      -0.085300
     16 C13         -4.6630    -3.9250    -0.7760 ca         1 1MN      -0.116000
     17 C14         -4.7600    -5.2440    -1.1790 ca         1 1MN      -0.126000
     18 C15         -4.9880    -5.5450    -2.5090 ca         1 1MN      -0.126000
     19 C16         -5.1180    -4.5270    -3.4350 ca         1 1MN      -0.126000
     20 C17         -5.0260    -3.2080    -3.0310 ca         1 1MN      -0.116000
     21 O2          -2.4400    -1.7640    -0.4200 os         1 1MN      -0.396600
     22 C18         -2.7070    -1.4150     0.9410 c3         1 1MN       0.179400
     23 C19         -1.9950    -2.3760     1.8590 ca         1 1MN      -0.082300
     24 C20         -0.7130    -2.7960     1.5570 ca         1 1MN      -0.103000
     25 C21         -0.0580    -3.6760     2.3980 ca         1 1MN      -0.107500
     26 C22         -0.6850    -4.1360     3.5410 ca         1 1MN      -0.009900
     27 Br2          0.2100    -5.3410     4.6930 br         1 1MN      -0.092100
     28 C23         -1.9680    -3.7160     3.8430 ca         1 1MN      -0.107500
     29 C24         -2.6200    -2.8310     3.0040 ca         1 1MN      -0.103000
     30 H1          -0.5410     0.0020    -0.9390 ha         1 1MN       0.143000
     31 H2           1.9250    -0.0040    -0.9380 ha         1 1MN       0.147500
     32 H3           1.9190    -0.0030     3.3360 ha         1 1MN       0.147500
     33 H4          -0.5460     0.0010     3.3310 ha         1 1MN       0.143000
     34 H5          -2.5640     0.3500     2.1540 h1         1 1MN       0.071700
     35 H6          -2.6840     2.5300     1.4560 h1         1 1MN       0.048367
     36 H7          -1.7730     2.7730    -0.0410 h1         1 1MN       0.048367
     37 H8          -3.5420     2.7950    -0.0680 h1         1 1MN       0.048367
     38 H9          -2.8530    -1.1880    -2.3530 h1         1 1MN       0.117700
     39 H10         -5.0320    -1.3780    -0.2410 hc         1 1MN       0.063700
     40 H11         -5.2960    -0.8490    -1.9080 hc         1 1MN       0.063700
     41 H12         -4.4840    -3.6890     0.2660 ha         1 1MN       0.130000
     42 H13         -4.6590    -6.0410    -0.4530 ha         1 1MN       0.130500
     43 H14         -5.0630    -6.5780    -2.8250 ha         1 1MN       0.130000
     44 H15         -5.2990    -4.7630    -4.4770 ha         1 1MN       0.130500
     45 H16         -5.1280    -2.4110    -3.7570 ha         1 1MN       0.130000
     46 H17         -3.7740    -1.4550     1.1230 h1         1 1MN       0.057700
     47 H18         -0.2210    -2.4360     0.6610 ha         1 1MN       0.146500
     48 H19          0.9470    -4.0060     2.1610 ha         1 1MN       0.148000
     49 H20         -2.4590    -4.0750     4.7390 ha         1 1MN       0.148000
     50 H21         -3.6250    -2.5010     3.2400 ha         1 1MN       0.146500
@<TRIPOS>BOND
     1    18    19 ar  
     2    18    17 ar  
     3    19    20 ar  
     4    17    16 ar  
     5    20    15 ar  
     6    16    15 ar  
     7    15    14 1   
     8    14    13 1   
     9    13    11 1   
    10    13    21 1   
    11    12    11 2   
    12    11     9 1   
    13    21    22 1   
    14    22    23 1   
    15    22     8 1   
    16     9     8 1   
    17     9    10 1   
    18    23    29 ar  
    19    23    24 ar  
    20    29    28 ar  
    21     8     7 1   
    22    24    25 ar  
    23    28    26 ar  
    24    25    26 ar  
    25    26    27 1   
    26     6     7 ar  
    27     6     5 ar  
    28     7     1 ar  
    29     5     3 ar  
    30     1     2 ar  
    31     3     2 ar  
    32     3     4 1   
    33     1    30 1   
    34     2    31 1   
    35     5    32 1   
    36     6    33 1   
    37     8    34 1   
    38    10    35 1   
    39    10    36 1   
    40    10    37 1   
    41    13    38 1   
    42    14    39 1   
    43    14    40 1   
    44    16    41 1   
    45    17    42 1   
    46    18    43 1   
    47    19    44 1   
    48    20    45 1   
    49    22    46 1   
    50    24    47 1   
    51    25    48 1   
    52    28    49 1   
    53    29    50 1   
@<TRIPOS>SUBSTRUCTURE
     1 1MN         1 TEMP              0 ****  ****    0 ROOT
