@<TRIPOS>MOLECULE
1MN
   50    53     1     0     0
SMALL
bcc


@<TRIPOS>ATOM
      1 C3          -0.0400    -0.3430     0.0740 ca         1 1MN      -0.110000
      2 C2           1.3480    -0.4060     0.1860 ca         1 1MN      -0.105500
      3 C1           1.9670    -0.0880     1.3980 ca         1 1MN      -0.018900
      4 Br1          3.8310    -0.1780     1.5520 br         1 1MN      -0.084100
      5 C4           1.1900     0.2960     2.4950 ca         1 1MN      -0.105500
      6 C5          -0.1970     0.3610     2.3780 ca         1 1MN      -0.110000
      7 C6          -0.8220     0.0440     1.1680 ca         1 1MN      -0.098300
      8 C7          -2.3250     0.0960     1.0260 c3         1 1MN       0.130000
      9 N1          -3.0200    -0.8250     1.9110 n          1 1MN      -0.459800
     10 C8          -2.8510    -2.2270     1.6390 c3         1 1MN       0.069300
     11 C9          -3.4820    -0.3970     3.1480 c          1 1MN       0.665500
     12 O1          -3.8920    -1.2100     4.0000 o          1 1MN      -0.630500
     13 C10         -3.5710     1.1040     3.4490 c3         1 1MN       0.078100
     14 C11         -5.0410     1.5290     3.4850 c3         1 1MN      -0.054100
     15 C12         -5.2560     2.6960     4.3830 ca         1 1MN      -0.083300
     16 C13         -5.5010     3.9680     3.8550 ca         1 1MN      -0.121500
     17 C14         -5.7190     5.0510     4.7060 ca         1 1MN      -0.128500
     18 C15         -5.6940     4.8720     6.0880 ca         1 1MN      -0.128000
     19 C16         -5.4510     3.6050     6.6200 ca         1 1MN      -0.128500
     20 C17         -5.2330     2.5210     5.7730 ca         1 1MN      -0.121500
     21 O2          -2.7970     1.9230     2.5800 os         1 1MN      -0.399600
     22 C18         -2.8860     1.5380     1.2060 c3         1 1MN       0.181400
     23 C19         -2.1630     2.5460     0.3700 ca         1 1MN      -0.074300
     24 C20         -2.3690     2.5400    -1.0150 ca         1 1MN      -0.110500
     25 C21         -1.7320     3.4760    -1.8250 ca         1 1MN      -0.104500
     26 C22         -0.8860     4.4330    -1.2550 ca         1 1MN      -0.020900
     27 Br2         -0.0310     5.6930    -2.3440 br         1 1MN      -0.085100
     28 C23         -0.6840     4.4470     0.1270 ca         1 1MN      -0.104500
     29 C24         -1.3200     3.5070     0.9360 ca         1 1MN      -0.110500
     30 H1          -0.5150    -0.5970    -0.8850 ha         1 1MN       0.142000
     31 H2           1.9490    -0.7070    -0.6860 ha         1 1MN       0.149500
     32 H3           1.6660     0.5500     3.4560 ha         1 1MN       0.149500
     33 H4          -0.8070     0.6800     3.2380 ha         1 1MN       0.142000
     34 H5          -2.5850    -0.2160    -0.0350 h1         1 1MN       0.067700
     35 H6          -1.7620    -2.5050     1.6310 h1         1 1MN       0.051700
     36 H7          -3.3800    -2.8350     2.4200 h1         1 1MN       0.051700
     37 H8          -3.2900    -2.4580     0.6310 h1         1 1MN       0.051700
     38 H9          -3.0940     1.2760     4.4600 h1         1 1MN       0.110700
     39 H10         -5.6510     0.6600     3.8580 hc         1 1MN       0.068700
     40 H11         -5.3870     1.7720     2.4460 hc         1 1MN       0.068700
     41 H12         -5.5180     4.1150     2.7650 ha         1 1MN       0.135000
     42 H13         -5.9110     6.0480     4.2830 ha         1 1MN       0.132500
     43 H14         -5.8670     5.7270     6.7580 ha         1 1MN       0.132000
     44 H15         -5.4310     3.4610     7.7110 ha         1 1MN       0.132500
     45 H16         -5.0450     1.5210     6.1930 ha         1 1MN       0.135000
     46 H17         -3.9740     1.5310     0.8960 h1         1 1MN       0.060700
     47 H18         -3.0400     1.7940    -1.4680 ha         1 1MN       0.146500
     48 H19         -1.9020     3.4580    -2.9130 ha         1 1MN       0.149500
     49 H20         -0.0220     5.1970     0.5880 ha         1 1MN       0.149500
     50 H21         -1.1630     3.5210     2.0270 ha         1 1MN       0.146500
@<TRIPOS>BOND
     1     1     2 ar  
     2     1     7 ar  
     3     1    30 1   
     4     2     3 ar  
     5     2    31 1   
     6     3     4 1   
     7     3     5 ar  
     8     5     6 ar  
     9     5    32 1   
    10     6     7 ar  
    11     6    33 1   
    12     7     8 1   
    13     8     9 1   
    14     8    22 1   
    15     8    34 1   
    16     9    10 1   
    17     9    11 1   
    18    10    35 1   
    19    10    36 1   
    20    10    37 1   
    21    11    12 2   
    22    11    13 1   
    23    13    14 1   
    24    13    21 1   
    25    13    38 1   
    26    14    15 1   
    27    14    39 1   
    28    14    40 1   
    29    15    16 ar  
    30    15    20 ar  
    31    16    17 ar  
    32    16    41 1   
    33    17    18 ar  
    34    17    42 1   
    35    18    19 ar  
    36    18    43 1   
    37    19    20 ar  
    38    19    44 1   
    39    20    45 1   
    40    21    22 1   
    41    22    23 1   
    42    22    46 1   
    43    23    24 ar  
    44    23    29 ar  
    45    24    25 ar  
    46    24    47 1   
    47    25    26 ar  
    48    25    48 1   
    49    26    27 1   
    50    26    28 ar  
    51    28    29 ar  
    52    28    49 1   
    53    29    50 1   
@<TRIPOS>SUBSTRUCTURE
     1 1MN         1 TEMP              0 ****  ****    0 ROOT
