@<TRIPOS>MOLECULE
1MO
   50    53     1     0     0
SMALL
bcc


@<TRIPOS>ATOM
      1 C3           0.0000     0.0000     0.0000 ca         1 1MO      -0.076000
      2 C2           1.3820     0.0000     0.0000 ca         1 1MO      -0.098500
      3 C1           2.0730     0.0000     1.1990 ca         1 1MO      -0.031600
      4 Cl1          3.8090     0.0000     1.2020 cl         1 1MO      -0.022400
      5 C4           1.3790     0.0020     2.3970 ca         1 1MO      -0.098500
      6 C5          -0.0020     0.0020     2.3940 ca         1 1MO      -0.076000
      7 C6          -0.6920     0.0070     1.1960 ca         1 1MO      -0.118300
      8 C7          -2.1990     0.0080     1.1950 c3         1 1MO       0.061000
      9 N1          -2.6820     0.9020     0.1440 n          1 1MO      -0.130800
     10 C8          -2.6680     2.3460     0.3870 c3         1 1MO       0.080300
     11 C9          -3.1380     0.4520    -1.0310 c          1 1MO       0.586500
     12 O1          -3.4910     1.2540    -1.8680 o          1 1MO      -0.678500
     13 C10         -3.2270    -1.0150    -1.3500 c3         1 1MO       0.116100
     14 C11         -4.6860    -1.4670    -1.2630 c3         1 1MO       0.001900
     15 C12         -4.7940    -2.9050    -1.7010 ca         1 1MO      -0.092300
     16 C13         -4.6640    -3.9220    -0.7740 ca         1 1MO      -0.092000
     17 C14         -4.7630    -5.2410    -1.1760 ca         1 1MO      -0.098500
     18 C15         -4.9910    -5.5430    -2.5050 ca         1 1MO      -0.101000
     19 C16         -5.1210    -4.5260    -3.4330 ca         1 1MO      -0.098500
     20 C17         -5.0270    -3.2070    -3.0300 ca         1 1MO      -0.092000
     21 O2          -2.4410    -1.7630    -0.4190 os         1 1MO      -0.382600
     22 C18         -2.7080    -1.4130     0.9430 c3         1 1MO       0.220400
     23 C19         -1.9950    -2.3720     1.8590 ca         1 1MO      -0.105300
     24 C20         -0.7140    -2.7940     1.5580 ca         1 1MO      -0.073500
     25 C21         -0.0600    -3.6750     2.3990 ca         1 1MO      -0.102000
     26 C22         -0.6880    -4.1340     3.5430 ca         1 1MO      -0.027600
     27 Cl2          0.1330    -5.2400     4.6010 cl         1 1MO      -0.024400
     28 C23         -1.9700    -3.7110     3.8450 ca         1 1MO      -0.102000
     29 C24         -2.6220    -2.8270     3.0060 ca         1 1MO      -0.073500
     30 H1          -0.5410     0.0020    -0.9390 ha         1 1MO       0.116000
     31 H2           1.9240    -0.0060    -0.9380 ha         1 1MO       0.118000
     32 H3           1.9190    -0.0000     3.3360 ha         1 1MO       0.118000
     33 H4          -0.5460     0.0060     3.3310 ha         1 1MO       0.116000
     34 H5          -2.5640     0.3540     2.1540 h1         1 1MO       0.044700
     35 H6          -2.6810     2.5340     1.4540 h1         1 1MO       0.016700
     36 H7          -3.5410     2.7980    -0.0690 h1         1 1MO       0.016700
     37 H8          -1.7720     2.7760    -0.0440 h1         1 1MO       0.016700
     38 H9          -2.8520    -1.1860    -2.3520 h1         1 1MO       0.072700
     39 H10         -5.2960    -0.8470    -1.9090 hc         1 1MO       0.033700
     40 H11         -5.0330    -1.3740    -0.2410 hc         1 1MO       0.033700
     41 H12         -4.4860    -3.6850     0.2680 ha         1 1MO       0.106500
     42 H13         -4.6620    -6.0380    -0.4490 ha         1 1MO       0.103000
     43 H14         -5.0660    -6.5760    -2.8210 ha         1 1MO       0.102000
     44 H15         -5.3010    -4.7630    -4.4740 ha         1 1MO       0.103000
     45 H16         -5.1290    -2.4100    -3.7570 ha         1 1MO       0.106500
     46 H17         -3.7750    -1.4530     1.1250 h1         1 1MO       0.029700
     47 H18         -0.2220    -2.4340     0.6630 ha         1 1MO       0.119000
     48 H19          0.9450    -4.0050     2.1630 ha         1 1MO       0.117500
     49 H20         -2.4620    -4.0690     4.7420 ha         1 1MO       0.117500
     50 H21         -3.6260    -2.4960     3.2420 ha         1 1MO       0.119000
@<TRIPOS>BOND
     1     1     2 ar  
     2     1     7 ar  
     3     1    30 1   
     4     2     3 ar  
     5     2    31 1   
     6     3     4 1   
     7     3     5 ar  
     8     5     6 ar  
     9     5    32 1   
    10     6     7 ar  
    11     6    33 1   
    12     7     8 1   
    13     8     9 1   
    14     8    22 1   
    15     8    34 1   
    16     9    10 1   
    17     9    11 1   
    18    10    35 1   
    19    10    36 1   
    20    10    37 1   
    21    11    12 2   
    22    11    13 1   
    23    13    14 1   
    24    13    21 1   
    25    13    38 1   
    26    14    15 1   
    27    14    39 1   
    28    14    40 1   
    29    15    16 ar  
    30    15    20 ar  
    31    16    17 ar  
    32    16    41 1   
    33    17    18 ar  
    34    17    42 1   
    35    18    19 ar  
    36    18    43 1   
    37    19    20 ar  
    38    19    44 1   
    39    20    45 1   
    40    21    22 1   
    41    22    23 1   
    42    22    46 1   
    43    23    24 ar  
    44    23    29 ar  
    45    24    25 ar  
    46    24    47 1   
    47    25    26 ar  
    48    25    48 1   
    49    26    27 1   
    50    26    28 ar  
    51    28    29 ar  
    52    28    49 1   
    53    29    50 1   
@<TRIPOS>SUBSTRUCTURE
     1 1MO         1 TEMP              0 ****  ****    0 ROOT
