@<TRIPOS>MOLECULE
1MO
   50    53     1     0     0
SMALL
bcc


@<TRIPOS>ATOM
      1 C3          -0.0260    -0.3430     0.0920 ca         1 1MO      -0.101000
      2 C2           1.3630    -0.4380     0.1490 ca         1 1MO      -0.126500
      3 C1           2.0270    -0.1260     1.3390 ca         1 1MO       0.025400
      4 Cl1          3.7210    -0.2450     1.4160 cl         1 1MO      -0.091400
      5 C4           1.3080     0.2830     2.4660 ca         1 1MO      -0.126500
      6 C5          -0.0800     0.3780     2.3970 ca         1 1MO      -0.101000
      7 C6          -0.7570     0.0680     1.2120 ca         1 1MO      -0.110300
      8 C7          -2.2630     0.1540     1.1260 c3         1 1MO       0.131000
      9 N1          -2.9440    -0.7530     2.0380 n          1 1MO      -0.459800
     10 C8          -2.8140    -2.1580     1.7600 c3         1 1MO       0.070300
     11 C9          -3.3520    -0.3160     3.2900 c          1 1MO       0.665500
     12 O1          -3.7480    -1.1200     4.1570 o          1 1MO      -0.632500
     13 C10         -3.3980     1.1870     3.5930 c3         1 1MO       0.078100
     14 C11         -4.8560     1.6430     3.6820 c3         1 1MO      -0.054100
     15 C12         -5.0150     2.8110     4.5910 ca         1 1MO      -0.083300
     16 C13         -5.2460     4.0900     4.0750 ca         1 1MO      -0.121500
     17 C14         -5.4110     5.1750     4.9370 ca         1 1MO      -0.129000
     18 C15         -5.3460     4.9890     6.3170 ca         1 1MO      -0.128000
     19 C16         -5.1150     3.7150     6.8360 ca         1 1MO      -0.129000
     20 C17         -4.9510     2.6300     5.9790 ca         1 1MO      -0.121500
     21 O2          -2.6390     1.9890     2.6960 os         1 1MO      -0.399600
     22 C18         -2.7860     1.6070     1.3270 c3         1 1MO       0.183400
     23 C19         -2.0730     2.6000     0.4640 ca         1 1MO      -0.086300
     24 C20         -2.3370     2.6030    -0.9120 ca         1 1MO      -0.101500
     25 C21         -1.7120     3.5250    -1.7470 ca         1 1MO      -0.125500
     26 C22         -0.8220     4.4560    -1.2020 ca         1 1MO       0.023400
     27 Cl2         -0.0580     5.5850    -2.2180 cl         1 1MO      -0.091400
     28 C23         -0.5580     4.4670     0.1710 ca         1 1MO      -0.125500
     29 C24         -1.1850     3.5380     1.0000 ca         1 1MO      -0.101500
     30 H1          -0.5440    -0.5910    -0.8470 ha         1 1MO       0.141500
     31 H2           1.9300    -0.7570    -0.7380 ha         1 1MO       0.149500
     32 H3           1.8310     0.5300     3.4020 ha         1 1MO       0.149500
     33 H4          -0.6530     0.7160     3.2770 ha         1 1MO       0.141500
     34 H5          -2.5680    -0.1520     0.0770 h1         1 1MO       0.066700
     35 H6          -1.7320    -2.4580     1.7090 h1         1 1MO       0.051700
     36 H7          -3.3240    -2.7550     2.5620 h1         1 1MO       0.051700
     37 H8          -3.2980    -2.3800     0.7710 h1         1 1MO       0.051700
     38 H9          -2.8810     1.3490     4.5860 h1         1 1MO       0.110700
     39 H10         -5.4710     0.7860     4.0740 hc         1 1MO       0.068700
     40 H11         -5.2330     1.8970     2.6570 hc         1 1MO       0.068700
     41 H12         -5.2940     4.2430     2.9870 ha         1 1MO       0.135000
     42 H13         -5.5910     6.1780     4.5240 ha         1 1MO       0.132500
     43 H14         -5.4760     5.8450     6.9950 ha         1 1MO       0.132000
     44 H15         -5.0650     3.5650     7.9250 ha         1 1MO       0.132500
     45 H16         -4.7740     1.6240     6.3890 ha         1 1MO       0.135000
     46 H17         -3.8840     1.6220     1.0570 h1         1 1MO       0.059700
     47 H18         -3.0430     1.8740    -1.3380 ha         1 1MO       0.146500
     48 H19         -1.9210     3.5210    -2.8270 ha         1 1MO       0.149500
     49 H20          0.1410     5.2020     0.5990 ha         1 1MO       0.149500
     50 H21         -0.9840     3.5420     2.0830 ha         1 1MO       0.146500
@<TRIPOS>BOND
     1     1     2 ar  
     2     1     7 ar  
     3     1    30 1   
     4     2     3 ar  
     5     2    31 1   
     6     3     4 1   
     7     3     5 ar  
     8     5     6 ar  
     9     5    32 1   
    10     6     7 ar  
    11     6    33 1   
    12     7     8 1   
    13     8     9 1   
    14     8    22 1   
    15     8    34 1   
    16     9    10 1   
    17     9    11 1   
    18    10    35 1   
    19    10    36 1   
    20    10    37 1   
    21    11    12 2   
    22    11    13 1   
    23    13    14 1   
    24    13    21 1   
    25    13    38 1   
    26    14    15 1   
    27    14    39 1   
    28    14    40 1   
    29    15    16 ar  
    30    15    20 ar  
    31    16    17 ar  
    32    16    41 1   
    33    17    18 ar  
    34    17    42 1   
    35    18    19 ar  
    36    18    43 1   
    37    19    20 ar  
    38    19    44 1   
    39    20    45 1   
    40    21    22 1   
    41    22    23 1   
    42    22    46 1   
    43    23    24 ar  
    44    23    29 ar  
    45    24    25 ar  
    46    24    47 1   
    47    25    26 ar  
    48    25    48 1   
    49    26    27 1   
    50    26    28 ar  
    51    28    29 ar  
    52    28    49 1   
    53    29    50 1   
@<TRIPOS>SUBSTRUCTURE
     1 1MO         1 TEMP              0 ****  ****    0 ROOT
