@<TRIPOS>MOLECULE
molecule
   50    53     1     0     0
SMALL
bcc


@<TRIPOS>ATOM
      1 C3           0.0000     0.0000     0.0000 ca         1 1MO      -0.100000
      2 C2           1.3820     0.0000     0.0000 ca         1 1MO      -0.124500
      3 C1           2.0730     0.0000     1.1990 ca         1 1MO       0.031400
      4 Cl1          3.8090     0.0000     1.2020 cl         1 1MO      -0.106400
      5 C4           1.3790     0.0020     2.3970 ca         1 1MO      -0.124500
      6 C5          -0.0020     0.0020     2.3940 ca         1 1MO      -0.100000
      7 C6          -0.6920     0.0070     1.1960 ca         1 1MO      -0.107300
      8 C7          -2.1990     0.0080     1.1950 c3         1 1MO       0.140000
      9 N1          -2.6820     0.9020     0.1440 n          1 1MO      -0.479800
     10 C8          -2.6680     2.3460     0.3870 c3         1 1MO       0.097300
     11 C9          -3.1380     0.4520    -1.0310 c          1 1MO       0.667500
     12 O1          -3.4910     1.2540    -1.8680 o          1 1MO      -0.638500
     13 C10         -3.2270    -1.0150    -1.3500 c3         1 1MO       0.079100
     14 C11         -4.6860    -1.4670    -1.2630 c3         1 1MO      -0.057100
     15 C12         -4.7940    -2.9050    -1.7010 ca         1 1MO      -0.085300
     16 C13         -4.6640    -3.9220    -0.7740 ca         1 1MO      -0.115500
     17 C14         -4.7630    -5.2410    -1.1760 ca         1 1MO      -0.126000
     18 C15         -4.9910    -5.5430    -2.5050 ca         1 1MO      -0.126000
     19 C16         -5.1210    -4.5260    -3.4330 ca         1 1MO      -0.126000
     20 C17         -5.0270    -3.2070    -3.0300 ca         1 1MO      -0.115500
     21 O2          -2.4410    -1.7630    -0.4190 os         1 1MO      -0.396600
     22 C18         -2.7080    -1.4130     0.9430 c3         1 1MO       0.181400
     23 C19         -1.9950    -2.3720     1.8590 ca         1 1MO      -0.093300
     24 C20         -0.7140    -2.7940     1.5580 ca         1 1MO      -0.095500
     25 C21         -0.0600    -3.6750     2.3990 ca         1 1MO      -0.126500
     26 C22         -0.6880    -4.1340     3.5430 ca         1 1MO       0.037400
     27 Cl2          0.1330    -5.2400     4.6010 cl         1 1MO      -0.106400
     28 C23         -1.9700    -3.7110     3.8450 ca         1 1MO      -0.126500
     29 C24         -2.6220    -2.8270     3.0060 ca         1 1MO      -0.095500
     30 H1          -0.5410     0.0020    -0.9390 ha         1 1MO       0.143500
     31 H2           1.9240    -0.0060    -0.9380 ha         1 1MO       0.147500
     32 H3           1.9190    -0.0000     3.3360 ha         1 1MO       0.147500
     33 H4          -0.5460     0.0060     3.3310 ha         1 1MO       0.143500
     34 H5          -2.5640     0.3540     2.1540 h1         1 1MO       0.070700
     35 H6          -2.6810     2.5340     1.4540 h1         1 1MO       0.048033
     36 H7          -3.5410     2.7980    -0.0690 h1         1 1MO       0.048033
     37 H8          -1.7720     2.7760    -0.0440 h1         1 1MO       0.048033
     38 H9          -2.8520    -1.1860    -2.3520 h1         1 1MO       0.117700
     39 H10         -5.2960    -0.8470    -1.9090 hc         1 1MO       0.063700
     40 H11         -5.0330    -1.3740    -0.2410 hc         1 1MO       0.063700
     41 H12         -4.4860    -3.6850     0.2680 ha         1 1MO       0.130500
     42 H13         -4.6620    -6.0380    -0.4490 ha         1 1MO       0.130500
     43 H14         -5.0660    -6.5760    -2.8210 ha         1 1MO       0.129000
     44 H15         -5.3010    -4.7630    -4.4740 ha         1 1MO       0.130500
     45 H16         -5.1290    -2.4100    -3.7570 ha         1 1MO       0.130500
     46 H17         -3.7750    -1.4530     1.1250 h1         1 1MO       0.056700
     47 H18         -0.2220    -2.4340     0.6630 ha         1 1MO       0.146500
     48 H19          0.9450    -4.0050     2.1630 ha         1 1MO       0.148000
     49 H20         -2.4620    -4.0690     4.7420 ha         1 1MO       0.148000
     50 H21         -3.6260    -2.4960     3.2420 ha         1 1MO       0.146500
@<TRIPOS>BOND
     1    18    19 ar  
     2    18    17 ar  
     3    19    20 ar  
     4    17    16 ar  
     5    20    15 ar  
     6    16    15 ar  
     7    15    14 1   
     8    14    13 1   
     9    13    11 1   
    10    13    21 1   
    11    12    11 2   
    12    11     9 1   
    13    21    22 1   
    14    22    23 1   
    15    22     8 1   
    16     9     8 1   
    17     9    10 1   
    18    23    29 ar  
    19    23    24 ar  
    20    29    28 ar  
    21     8     7 1   
    22    24    25 ar  
    23    28    26 ar  
    24    25    26 ar  
    25    26    27 1   
    26     6     7 ar  
    27     6     5 ar  
    28     7     1 ar  
    29     5     3 ar  
    30     1     2 ar  
    31     3     2 ar  
    32     3     4 1   
    33     1    30 1   
    34     2    31 1   
    35     5    32 1   
    36     6    33 1   
    37     8    34 1   
    38    10    35 1   
    39    10    36 1   
    40    10    37 1   
    41    13    38 1   
    42    14    39 1   
    43    14    40 1   
    44    16    41 1   
    45    17    42 1   
    46    18    43 1   
    47    19    44 1   
    48    20    45 1   
    49    22    46 1   
    50    24    47 1   
    51    25    48 1   
    52    28    49 1   
    53    29    50 1   
@<TRIPOS>SUBSTRUCTURE
     1 1MO         1 TEMP              0 ****  ****    0 ROOT
