@<TRIPOS>MOLECULE
1MQ
   59    62     1     0     0
SMALL
bcc


@<TRIPOS>ATOM
      1 C3          -0.0110    -0.4970    -0.3350 ca         1 1MQ      -0.101000
      2 C2           1.3810    -0.4800    -0.3850 ca         1 1MQ      -0.142500
      3 C1           2.0970     0.1960     0.6070 ca         1 1MQ       0.018400
      4 Cl1          3.8040     0.2240     0.5490 cl         1 1MQ      -0.135400
      5 C4           1.4320     0.8460     1.6480 ca         1 1MQ      -0.142500
      6 C5           0.0380     0.8250     1.6890 ca         1 1MQ      -0.101000
      7 C6          -0.6920     0.1700     0.6950 ca         1 1MQ      -0.085300
      8 C7          -2.2040     0.1220     0.6760 c3         1 1MQ       0.116000
      9 N1          -2.7560    -0.9350     1.5060 n          1 1MQ      -0.412800
     10 C8          -2.8430    -2.2930     0.9760 c3         1 1MQ      -0.008100
     11 C9          -3.1060    -0.6740     2.8090 c          1 1MQ       0.667500
     12 O1          -3.3960    -1.5730     3.6310 o          1 1MQ      -0.671500
     13 C10         -3.2360     0.7820     3.2910 c3         1 1MQ       0.077100
     14 C11         -4.7120     1.0710     3.5870 c3         1 1MQ      -0.062100
     15 C12         -4.8770     2.0800     4.6680 ca         1 1MQ      -0.075300
     16 C13         -5.2970     3.3820     4.3750 ca         1 1MQ      -0.101500
     17 C14         -5.4680     4.3200     5.3890 ca         1 1MQ      -0.167500
     18 C15         -5.2150     3.9520     6.7220 ca         1 1MQ       0.107900
     19 C16         -4.7900     2.6460     7.0270 ca         1 1MQ      -0.167500
     20 C17         -4.6250     1.7240     6.0000 ca         1 1MQ      -0.101500
     21 O2          -2.6890     1.7720     2.4280 os         1 1MQ      -0.421600
     22 C18         -2.8670     1.4790     1.0370 c3         1 1MQ       0.170400
     23 C19         -2.3370     2.6220     0.2280 ca         1 1MQ      -0.067300
     24 C20         -2.5210     2.6010    -1.1610 ca         1 1MQ      -0.103500
     25 C21         -2.0790     3.6640    -1.9460 ca         1 1MQ      -0.130000
     26 C22         -1.4560     4.7570    -1.3370 ca         1 1MQ       0.014400
     27 Cl2         -0.9210     6.0640    -2.2930 cl         1 1MQ      -0.121400
     28 C23         -1.2660     4.7890     0.0460 ca         1 1MQ      -0.130000
     29 C24         -1.7070     3.7190     0.8240 ca         1 1MQ      -0.103500
     30 C25         -1.5580    -3.0640     1.0760 c2         1 1MQ      -0.146200
     31 C26         -3.3510    -2.3300    -0.5150 c          1 1MQ       0.916600
     32 O3          -4.5280    -2.7290    -0.6930 o          1 1MQ      -0.823800
     33 O4          -2.5590    -1.9700    -1.4330 o          1 1MQ      -0.823800
     34 C27         -1.1550    -3.6520     2.2050 c2         1 1MQ      -0.201200
     35 C28          0.0790    -4.4530     2.3230 c3         1 1MQ      -0.050900
     36 F1          -5.3800     4.8590     7.7170 f          1 1MQ      -0.152900
     37 H1          -0.5980    -1.0570    -1.0940 ha         1 1MQ       0.175000
     38 H2           1.9080    -1.0020    -1.1970 ha         1 1MQ       0.136000
     39 H3           1.9980     1.3680     2.4320 ha         1 1MQ       0.136000
     40 H4          -0.4880     1.3400     2.5090 ha         1 1MQ       0.175000
     41 H5          -2.5120    -0.1040    -0.4010 h1         1 1MQ       0.137700
     42 H6          -3.6300    -2.8220     1.5960 h1         1 1MQ       0.082700
     43 H7          -2.6210     0.8840     4.2320 h1         1 1MQ       0.091700
     44 H8          -5.2130     1.4230     2.6470 hc         1 1MQ       0.075200
     45 H9          -5.2050     0.1100     3.9030 hc         1 1MQ       0.075200
     46 H10         -5.4890     3.6710     3.3300 ha         1 1MQ       0.146000
     47 H11         -5.7970     5.3430     5.1590 ha         1 1MQ       0.141500
     48 H12         -4.5920     2.3670     8.0720 ha         1 1MQ       0.141500
     49 H13         -4.2930     0.6990     6.2320 ha         1 1MQ       0.146000
     50 H14         -3.9770     1.3920     0.8300 h1         1 1MQ       0.062700
     51 H15         -3.0080     1.7340    -1.6390 ha         1 1MQ       0.157000
     52 H16         -2.2190     3.6370    -3.0370 ha         1 1MQ       0.142000
     53 H17         -0.7700     5.6470     0.5220 ha         1 1MQ       0.142000
     54 H18         -1.5570     3.7340     1.9150 ha         1 1MQ       0.157000
     55 H19         -0.9870    -3.1260     0.1340 ha         1 1MQ       0.138000
     56 H21         -1.7510    -3.5560     3.1300 ha         1 1MQ       0.129000
     57 H22          0.7630    -3.9980     3.0830 hc         1 1MQ       0.026367
     58 H23          0.6280    -4.5170     1.3510 hc         1 1MQ       0.026367
     59 H24         -0.1660    -5.4930     2.6570 hc         1 1MQ       0.026367
@<TRIPOS>BOND
     1     1     2 ar  
     2     1     7 ar  
     3     1    37 1   
     4     2     3 ar  
     5     2    38 1   
     6     3     4 1   
     7     3     5 ar  
     8     5     6 ar  
     9     5    39 1   
    10     6     7 ar  
    11     6    40 1   
    12     7     8 1   
    13     8     9 1   
    14     8    22 1   
    15     8    41 1   
    16     9    10 1   
    17     9    11 1   
    18    10    30 1   
    19    10    31 1   
    20    10    42 1   
    21    11    12 2   
    22    11    13 1   
    23    13    14 1   
    24    13    21 1   
    25    13    43 1   
    26    14    15 1   
    27    14    44 1   
    28    14    45 1   
    29    15    16 ar  
    30    15    20 ar  
    31    16    17 ar  
    32    16    46 1   
    33    17    18 ar  
    34    17    47 1   
    35    18    19 ar  
    36    18    36 1   
    37    19    20 ar  
    38    19    48 1   
    39    20    49 1   
    40    21    22 1   
    41    22    23 1   
    42    22    50 1   
    43    23    24 ar  
    44    23    29 ar  
    45    24    25 ar  
    46    24    51 1   
    47    25    26 ar  
    48    25    52 1   
    49    26    27 1   
    50    26    28 ar  
    51    28    29 ar  
    52    28    53 1   
    53    29    54 1   
    54    30    34 2   
    55    30    55 1   
    56    31    32 1   
    57    31    33 1   
    58    34    35 1   
    59    34    56 1   
    60    35    57 1   
    61    35    58 1   
    62    35    59 1   
@<TRIPOS>SUBSTRUCTURE
     1 1MQ         1 TEMP              0 ****  ****    0 ROOT
