@<TRIPOS>MOLECULE
molecule
   59    62     1     0     0
SMALL
bcc


@<TRIPOS>ATOM
      1 C3           0.0000     0.0000     0.0000 ca         1 1MQ      -0.080000
      2 C2           1.3820     0.0000     0.0000 ca         1 1MQ      -0.128000
      3 C1           2.0750     0.0000     1.1980 ca         1 1MQ       0.030400
      4 Cl1          3.8110     0.0010     1.1980 cl         1 1MQ      -0.143400
      5 C4           1.3830     0.0000     2.3960 ca         1 1MQ      -0.128000
      6 C5           0.0000    -0.0000     2.3950 ca         1 1MQ      -0.080000
      7 C6          -0.6910     0.0050     1.1980 ca         1 1MQ      -0.092300
      8 C7          -2.1980     0.0050     1.1980 c3         1 1MQ       0.147000
      9 N1          -2.6820     0.8990     0.1500 n          1 1MQ      -0.462800
     10 C8          -2.6690     2.3440     0.3940 c3         1 1MQ       0.037900
     11 C9          -3.1390     0.4500    -1.0260 c          1 1MQ       0.666500
     12 O1          -3.4950     1.2540    -1.8620 o          1 1MQ      -0.569500
     13 C10         -3.2280    -1.0160    -1.3460 c3         1 1MQ       0.072100
     14 C11         -4.6870    -1.4690    -1.2580 c3         1 1MQ      -0.065100
     15 C12         -4.7940    -2.9060    -1.6980 ca         1 1MQ      -0.082300
     16 C13         -4.6630    -3.9240    -0.7710 ca         1 1MQ      -0.094000
     17 C14         -4.7620    -5.2420    -1.1720 ca         1 1MQ      -0.169000
     18 C15         -4.9920    -5.5450    -2.5040 ca         1 1MQ       0.117900
     19 C16         -5.1230    -4.5240    -3.4310 ca         1 1MQ      -0.169000
     20 C17         -5.0290    -3.2060    -3.0260 ca         1 1MQ      -0.094000
     21 O2          -2.4400    -1.7640    -0.4170 os         1 1MQ      -0.407600
     22 C18         -2.7060    -1.4160     0.9450 c3         1 1MQ       0.176400
     23 C19         -1.9910    -2.3760     1.8610 ca         1 1MQ      -0.054300
     24 C20         -2.6160    -2.8320     3.0070 ca         1 1MQ      -0.099500
     25 C21         -1.9610    -3.7120     3.8470 ca         1 1MQ      -0.137000
     26 C22         -0.6810    -4.1380     3.5410 ca         1 1MQ       0.020400
     27 Cl2          0.1420    -5.2450     4.5960 cl         1 1MQ      -0.131400
     28 C23         -0.0560    -3.6820     2.3930 ca         1 1MQ      -0.137000
     29 C24         -0.7140    -2.8050     1.5510 ca         1 1MQ      -0.099500
     30 C25         -4.0740     2.8830     0.2990 c2         1 1MQ      -0.112200
     31 C26         -1.8010     3.0200    -0.6360 c          1 1MQ       0.893600
     32 O3          -1.5470     2.4570    -1.6740 o          1 1MQ      -0.823800
     33 O4          -1.3100     4.2460    -0.4000 o          1 1MQ      -0.823800
     34 C27         -5.0800     2.0610     0.1290 c2         1 1MQ      -0.233200
     35 C28         -6.4840     2.6010     0.0340 c3         1 1MQ      -0.045900
     36 F1          -5.0890    -6.8330    -2.8990 f          1 1MQ      -0.151900
     37 H1          -0.5420     0.0020    -0.9380 ha         1 1MQ       0.148500
     38 H2           1.9230    -0.0040    -0.9380 ha         1 1MQ       0.136000
     39 H3           1.9240    -0.0020     3.3340 ha         1 1MQ       0.136000
     40 H4          -0.5420     0.0010     3.3330 ha         1 1MQ       0.148500
     41 H5          -2.5620     0.3500     2.1580 h1         1 1MQ       0.060700
     42 H6          -2.2730     2.5390     1.3840 h1         1 1MQ       0.066700
     43 H7          -2.8550    -1.1860    -2.3490 h1         1 1MQ       0.112700
     44 H8          -5.0310    -1.3790    -0.2340 hc         1 1MQ       0.065700
     45 H9          -5.2980    -0.8470    -1.9010 hc         1 1MQ       0.065700
     46 H10         -4.4830    -3.6870     0.2710 ha         1 1MQ       0.141000
     47 H11         -4.6590    -6.0390    -0.4460 ha         1 1MQ       0.138500
     48 H12         -5.3060    -4.7590    -4.4730 ha         1 1MQ       0.138500
     49 H13         -5.1320    -2.4080    -3.7520 ha         1 1MQ       0.141000
     50 H14         -3.7730    -1.4570     1.1280 h1         1 1MQ       0.045700
     51 H15         -3.6250    -2.5130     3.2380 ha         1 1MQ       0.152000
     52 H16         -2.4500    -4.0690     4.7450 ha         1 1MQ       0.142000
     53 H17          0.9610    -3.9820     2.1750 ha         1 1MQ       0.142000
     54 H18         -0.3590    -3.3240     0.6690 ha         1 1MQ       0.152000
     55 H19         -4.2510     3.9490     0.3710 ha         1 1MQ       0.138000
     56 H21         -4.9020     0.9950     0.0570 ha         1 1MQ       0.109000
     57 H22         -6.5970     3.1530    -0.8920 hc         1 1MQ       0.024367
     58 H23         -7.1890     1.7780     0.0520 hc         1 1MQ       0.024367
     59 H24         -6.6760     3.2590     0.8730 hc         1 1MQ       0.024367
@<TRIPOS>BOND
     1    19    20 ar
     2    19    18 ar
     3    20    15 ar
     4    36    18 1
     5    18    17 ar
     6    15    14 1
     7    15    16 ar
     8    14    13 1
     9    17    16 ar
    10    12    11 2
    11    13    11 1
    12    13    21 1
    13    11     9 1
    14    21    22 1
    15     6     5 ar
    16     6     7 ar
    17     9    10 1
    18     9     8 1
    19     5     3 ar
    20    22     8 1
    21    22    23 1
    22    10    31 1
    23    10    30 1
    24    32    31 1
    25    29    23 ar
    26    29    28 ar
    27     8     7 1
    28     7     1 ar
    29    34    30 2
    30    34    35 1
    31    31    33 1
    32    23    24 ar
    33     3     4 1
    34     3     2 ar
    35    28    26 ar
    36     1     2 ar
    37    24    25 ar
    38    26    25 ar
    39    26    27 1
    40     1    37 1
    41     2    38 1
    42     5    39 1
    43     6    40 1
    44     8    41 1
    45    10    42 1
    46    13    43 1
    47    14    44 1
    48    14    45 1
    49    16    46 1
    50    17    47 1
    51    19    48 1
    52    20    49 1
    53    22    50 1
    54    24    51 1
    55    25    52 1
    56    28    53 1
    57    29    54 1
    58    30    55 1
    59    34    56 1
    60    35    57 1
    61    35    58 1
    62    35    59 1
@<TRIPOS>SUBSTRUCTURE
     1 1MQ         1 TEMP              0 ****  ****    0 ROOT
