@<TRIPOS>MOLECULE
1MR
   17    17     1     0     0
SMALL
bcc


@<TRIPOS>ATOM
      1 CAA          0.0340    -0.1600    -0.0530 c3         1 1MR       0.174100
      2 NAG          1.4560     0.0240    -0.0810 nu         1 1MR      -0.731600
      3 CAH          2.1610     0.0540     1.1340 ca         1 1MR       0.142600
      4 CAE          3.4650     0.6070     1.1710 ca         1 1MR      -0.187500
      5 CAC          4.2150     0.5610     2.3400 ca         1 1MR      -0.095500
      6 CAB          3.6970    -0.0190     3.4970 ca         1 1MR      -0.172000
      7 CAD          2.4120    -0.5570     3.4760 ca         1 1MR      -0.095500
      8 CAF          1.6440    -0.5230     2.3160 ca         1 1MR      -0.187500
      9 HAA1        -0.4950     0.5630     0.6270 h1         1 1MR       0.036367
     10 HAA2        -0.3660    -0.0350    -1.0940 h1         1 1MR       0.036367
     11 HAA3        -0.1970    -1.2030     0.2940 h1         1 1MR       0.036367
     12 HNAG         1.7540     0.7330    -0.7200 hn         1 1MR       0.394800
     13 HAE          3.8960     1.0680     0.2700 ha         1 1MR       0.130500
     14 HAC          5.2290     0.9900     2.3490 ha         1 1MR       0.128000
     15 HAB          4.2960    -0.0500     4.4170 ha         1 1MR       0.130000
     16 HAD          1.9950    -1.0160     4.3850 ha         1 1MR       0.128000
     17 HAF          0.6330    -0.9550     2.3300 ha         1 1MR       0.130500
@<TRIPOS>BOND
     1     1     2 1   
     2     1     9 1   
     3     1    10 1   
     4     1    11 1   
     5     2     3 1   
     6     2    12 1   
     7     3     4 ar  
     8     3     8 ar  
     9     4     5 ar  
    10     4    13 1   
    11     5     6 ar  
    12     5    14 1   
    13     6     7 ar  
    14     6    15 1   
    15     7     8 ar  
    16     7    16 1   
    17     8    17 1   
@<TRIPOS>SUBSTRUCTURE
     1 1MR         1 TEMP              0 ****  ****    0 ROOT
