@<TRIPOS>MOLECULE
1MR
   17    17     1     0     0
SMALL
bcc


@<TRIPOS>ATOM
      1 CAA          0.0000     0.0000     0.0000 c3         1 1MR       0.212100
      2 NAG          1.4310     0.0000     0.0000 nu         1 1MR      -0.451600
      3 CAH          2.1960     0.0000     1.1840 ca         1 1MR       0.059600
      4 CAE          3.4550     0.6030     1.2000 ca         1 1MR      -0.168000
      5 CAC          4.2120     0.6040     2.3720 ca         1 1MR      -0.062000
      6 CAB          3.7120     0.0030     3.5260 ca         1 1MR      -0.150000
      7 CAD          2.4540    -0.5990     3.5110 ca         1 1MR      -0.062000
      8 CAF          1.6970    -0.6000     2.3390 ca         1 1MR      -0.168000
      9 HAA1        -0.3610     0.7110     0.7330 h1         1 1MR      -0.003300
     10 HAA2        -0.3610     0.2790    -0.9820 h1         1 1MR      -0.003300
     11 HAA3        -0.3610    -0.9900     0.2490 h1         1 1MR      -0.003300
     12 HNAG         1.9100    -0.0000    -0.8790 hn         1 1MR       0.283800
     13 HAE          3.8430     1.0690     0.3030 ha         1 1MR       0.108500
     14 HAC          5.1890     1.0720     2.3840 ha         1 1MR       0.098000
     15 HAB          4.3000     0.0050     4.4360 ha         1 1MR       0.103000
     16 HAD          2.0650    -1.0660     4.4080 ha         1 1MR       0.098000
     17 HAF          0.7200    -1.0690     2.3270 ha         1 1MR       0.108500
@<TRIPOS>BOND
     1     1     2 1   
     2     1     9 1   
     3     1    10 1   
     4     1    11 1   
     5     2     3 1   
     6     2    12 1   
     7     3     4 ar  
     8     3     8 ar  
     9     4     5 ar  
    10     4    13 1   
    11     5     6 ar  
    12     5    14 1   
    13     6     7 ar  
    14     6    15 1   
    15     7     8 ar  
    16     7    16 1   
    17     8    17 1   
@<TRIPOS>SUBSTRUCTURE
     1 1MR         1 TEMP              0 ****  ****    0 ROOT
