@<TRIPOS>MOLECULE
1MS
   35    36     1     0     0
SMALL
bcc


@<TRIPOS>ATOM
      1 O8           0.9770     1.7370     0.1420 o          1 1MS      -0.193500
      2 N7           1.8110     0.8950     0.0180 no         1 1MS       0.310200
      3 O9           2.5640     0.5810     0.9090 o          1 1MS      -0.193500
      4 C1           1.9390     0.1590    -1.2780 ca         1 1MS      -0.044200
      5 C6           0.9250     0.3000    -2.2240 ca         1 1MS      -0.083000
      6 C5           0.9990    -0.4280    -3.4210 ca         1 1MS      -0.031000
      7 C4           2.0710    -1.2830    -3.6480 ca         1 1MS      -0.114000
      8 C3           3.0840    -1.4030    -2.6940 ca         1 1MS      -0.001000
      9 C2           3.0650    -0.6750    -1.4930 ca         1 1MS      -0.401500
     10 S10          4.3820    -0.8270    -0.5100 sy         1 1MS       1.715800
     11 O11          5.2220    -1.8170    -0.9230 o          1 1MS      -0.599300
     12 O12          4.8530     0.3280     0.0370 o          1 1MS      -0.599300
     13 N13          4.4580    -0.4140     2.7780 nv         1 1MS      -0.503100
     14 C14          3.9240    -1.5420     2.2390 c2         1 1MS       0.748100
     15 O15          3.6940    -1.5970     0.9320 os         1 1MS      -0.568300
     16 N16          3.6130    -2.6520     2.9800 nu         1 1MS      -0.399000
     17 C18          3.2790    -3.9230     2.3960 ca         1 1MS       0.709500
     18 N17          4.0790    -4.3920     1.3770 nb         1 1MS      -0.686000
     19 C23          3.7640    -5.6190     0.9170 ca         1 1MS       0.450200
     20 C22          2.6980    -6.3770     1.4270 ca         1 1MS      -0.350600
     21 C20          1.9290    -5.8090     2.4700 ca         1 1MS       0.480600
     22 C21          0.7950    -6.5850     3.0540 c3         1 1MS      -0.166400
     23 N19          2.2070    -4.5750     2.9640 nb         1 1MS      -0.700000
     24 H6           0.0670     0.9740    -2.0380 ha         1 1MS       0.198000
     25 H5           0.1980    -0.3160    -4.1730 ha         1 1MS       0.181000
     26 H4           2.1290    -1.8690    -4.5820 ha         1 1MS       0.180000
     27 H3           3.9320    -2.0900    -2.8980 ha         1 1MS       0.188000
     28 HN13         4.5980    -0.3220     3.7590 hn         1 1MS       0.337700
     29 HN16         3.4860    -2.5730     3.9710 hn         1 1MS       0.340700
     30 H23          4.4140    -6.0000     0.1050 h4         1 1MS       0.053100
     31 H22          2.4710    -7.3770     1.0360 ha         1 1MS       0.178000
     32 H21          0.4770    -7.3870     2.3440 hc         1 1MS       0.075367
     33 H21A         1.1250    -7.0620     4.0120 hc         1 1MS       0.075367
     34 H21B        -0.0830    -5.9280     3.2750 hc         1 1MS       0.075367
     35 H132         4.5430     0.4060     2.2040 hn         1 1MS       0.337700
@<TRIPOS>BOND
     1     1     2 1   
     2     2     3 1   
     3     2     4 1   
     4     4     5 ar  
     5     4     9 ar  
     6     5     6 ar  
     7     5    24 1   
     8     6     7 ar  
     9     6    25 1   
    10     7     8 ar  
    11     7    26 1   
    12     8     9 ar  
    13     8    27 1   
    14     9    10 1   
    15    10    11 2   
    16    10    12 2   
    17    10    15 1   
    18    13    14 2   
    19    13    28 1   
    20    13    35 1   
    21    14    15 1   
    22    14    16 1   
    23    16    17 1   
    24    16    29 1   
    25    17    18 ar  
    26    17    23 ar  
    27    18    19 ar  
    28    19    20 ar  
    29    19    30 1   
    30    20    21 ar  
    31    20    31 1   
    32    21    22 1   
    33    21    23 ar  
    34    22    32 1   
    35    22    33 1   
    36    22    34 1   
@<TRIPOS>SUBSTRUCTURE
     1 1MS         1 TEMP              0 ****  ****    0 ROOT
