@<TRIPOS>MOLECULE
molecule
   34    35     1     0     0
SMALL
bcc


@<TRIPOS>ATOM
      1 O8           0.0000     0.0000     0.0000 o          1 1MS      -0.199500
      2 N7           1.2190     0.0000     0.0000 no         1 1MS       0.288200
      3 O9           1.8280     0.0000     1.0530 o          1 1MS      -0.199500
      4 C1           1.9580    -0.0050    -1.2830 ca         1 1MS      -0.073200
      5 C6           1.2740    -0.1560    -2.4740 ca         1 1MS      -0.085000
      6 C5           1.9640    -0.1610    -3.6720 ca         1 1MS      -0.085000
      7 C4           3.3380    -0.0150    -3.6780 ca         1 1MS      -0.107000
      8 C3           4.0220     0.1370    -2.4860 ca         1 1MS      -0.005000
      9 C2           3.3320     0.1470    -1.2890 ca         1 1MS      -0.252500
     10 S10          4.2030     0.3470     0.2290 sy         1 1MS       1.443900
     11 O11          5.5840     0.3840    -0.1030 o          1 1MS      -0.601800
     12 O12          3.5450     1.3900     0.9350 o          1 1MS      -0.601800
     13 N13          3.9710    -1.0350     1.1130 ns         1 1MS      -0.649300
     14 C14          4.4480    -2.2120     0.6610 c          1 1MS       0.788100
     15 O15          4.9680    -2.2760    -0.4360 o          1 1MS      -0.568100
     16 N16          4.3480    -3.3170     1.4260 ns         1 1MS      -0.533400
     17 C18          4.8390    -4.5300     0.9610 ca         1 1MS       0.815900
     18 N17          5.4030    -4.5820    -0.2370 nb         1 1MS      -0.722000
     19 C23          5.8810    -5.7220    -0.7100 ca         1 1MS       0.487200
     20 C22          5.7870    -6.8680     0.0640 ca         1 1MS      -0.418600
     21 C20          5.1920    -6.7770     1.3120 ca         1 1MS       0.496600
     22 C21          5.0680    -7.9960     2.1890 c3         1 1MS      -0.145400
     23 N19          4.7390    -5.6050     1.7270 nb         1 1MS      -0.784000
     24 H6           0.1970    -0.2710    -2.4700 ha         1 1MS       0.168000
     25 H5           1.4280    -0.2800    -4.6060 ha         1 1MS       0.150000
     26 H4           3.8790    -0.0210    -4.6160 ha         1 1MS       0.151000
     27 H3           5.0990     0.2530    -2.4910 ha         1 1MS       0.180000
     28 HN13         3.5040    -0.9900     1.9970 hn         1 1MS       0.359500
     29 HN16         3.9230    -3.2630     2.3310 hn         1 1MS       0.344500
     30 H23          6.3410    -5.7580    -1.6900 h4         1 1MS       0.035100
     31 H22          6.1700    -7.8140    -0.2990 ha         1 1MS       0.148000
     32 H21          4.5740    -7.7260     3.1150 hc         1 1MS       0.059033
     33 H21A         6.0550    -8.3860     2.4060 hc         1 1MS       0.059033
     34 H21B         4.4850    -8.7520     1.6760 hc         1 1MS       0.059033
@<TRIPOS>BOND
     1     1     2 1   
     2     2     3 1   
     3     2     4 1   
     4     4     5 ar  
     5     4     9 ar  
     6     5     6 ar  
     7     6     7 ar  
     8     7     8 ar  
     9     8     9 ar  
    10     9    10 1   
    11    10    11 2   
    12    10    12 2   
    13    10    13 1   
    14    13    14 1   
    15    14    15 2   
    16    14    16 1   
    17    16    17 1   
    18    17    18 ar  
    19    17    23 ar  
    20    18    19 ar  
    21    19    20 ar  
    22    20    21 ar  
    23    21    22 1   
    24    21    23 ar  
    25     5    24 1   
    26     6    25 1   
    27     7    26 1   
    28     8    27 1   
    29    13    28 1   
    30    16    29 1   
    31    19    30 1   
    32    20    31 1   
    33    22    32 1   
    34    22    33 1   
    35    22    34 1   
@<TRIPOS>SUBSTRUCTURE
     1 1MS         1 TEMP              0 ****  ****    0 ROOT
