@<TRIPOS>MOLECULE
molecule
   64    67     1     0     0
SMALL
bcc


@<TRIPOS>ATOM
      1 Cl1          0.0000     0.0000     0.0000 cl         1 1MT      -0.075400
      2 C1           1.7360     0.0000     0.0000 ca         1 1MT      -0.023600
      3 C2           2.4300     0.0000     1.2000 ca         1 1MT       0.140900
      4 C3           2.4280    -0.0050    -1.1980 ca         1 1MT      -0.086000
      5 C4           3.8110    -0.0050    -1.1970 ca         1 1MT      -0.133000
      6 C5           4.5030    -0.0000    -0.0010 ca         1 1MT      -0.072000
      7 C6           3.8140    -0.0010     1.1970 ca         1 1MT      -0.159300
      8 C7           4.5690     0.0050     2.5010 c3         1 1MT       0.011600
      9 C8           5.8570    -0.8370     2.3790 c3         1 1MT       0.082500
     10 C9           6.4700     1.2170     3.3940 c3         1 1MT       0.176500
     11 C10          7.3200     2.4720     3.1880 c3         1 1MT      -0.068400
     12 C11          8.6790     2.2850     3.8660 c3         1 1MT      -0.069000
     13 C12          9.5290     3.5410     3.6590 c3         1 1MT      -0.088767
     14 C13          8.4730     2.0500     5.3640 c3         1 1MT      -0.088767
     15 C14          9.3930     1.0800     3.2530 c3         1 1MT      -0.088767
     16 C15          5.8700    -1.9120     3.4360 c          1 1MT       0.641100
     17 O1           6.5190    -1.7590     4.4490 o          1 1MT      -0.591100
     18 N1           5.1600    -3.0420     3.2540 ns         1 1MT      -0.591900
     19 C17          5.1730    -4.0880     4.2810 c3         1 1MT       0.092000
     20 C18          5.0540     1.4220     2.8320 c3         1 1MT      -0.095700
     21 C19          4.1560     2.1080     3.8180 ca         1 1MT      -0.148300
     22 C20          3.7480     1.8110     5.0990 ca         1 1MT      -0.067000
     23 C21          2.8900     2.6660     5.7700 ca         1 1MT      -0.147000
     24 C22          2.4440     3.8200     5.1490 ca         1 1MT       0.069400
     25 Cl2          1.3670     4.8910     5.9880 cl         1 1MT      -0.081400
     26 C23          2.8520     4.1220     3.8640 ca         1 1MT      -0.149000
     27 C24          3.7150     3.2670     3.1840 ca         1 1MT       0.074600
     28 N2           4.2610     3.3530     1.9010 ns         1 1MT      -0.457100
     29 C25          5.0620     2.3060     1.6180 c          1 1MT       0.735500
     30 O2           5.6680     2.1150     0.5860 o          1 1MT      -0.586500
     31 F1           1.7550     0.0000     2.3710 f          1 1MT      -0.129900
     32 C16          4.2930    -5.2550     3.8320 c3         1 1MT       0.072800
     33 N3           4.3060    -6.3030     4.8610 nz         1 1MT      -0.806600
     34 N4           6.9970     0.0840     2.5830 n7         1 1MT      -0.762200
     35 H1           1.8870    -0.0090    -2.1360 ha         1 1MT       0.158000
     36 H2           4.3520    -0.0070    -2.1360 ha         1 1MT       0.154000
     37 H3           5.5860    -0.0010    -0.0020 ha         1 1MT       0.177000
     38 H4           3.9480    -0.3760     3.3030 hc         1 1MT       0.075700
     39 H5           5.9140    -1.2800     1.3920 h1         1 1MT       0.094700
     40 H6           6.4260     0.9450     4.4420 h1         1 1MT       0.063700
     41 H7           7.4650     2.6400     2.1280 hc         1 1MT       0.065200
     42 H8           6.8140     3.3260     3.6220 hc         1 1MT       0.065200
     43 H9           9.0180     4.3970     4.0820 hc         1 1MT       0.039144
     44 H10         10.4870     3.4130     4.1490 hc         1 1MT       0.039144
     45 H11          9.6840     3.7010     2.5990 hc         1 1MT       0.039144
     46 H12          9.4000     2.2420     5.8900 hc         1 1MT       0.039144
     47 H13          7.7040     2.7180     5.7320 hc         1 1MT       0.039144
     48 H14          8.1700     1.0230     5.5300 hc         1 1MT       0.039144
     49 H15          9.0210     0.9110     2.2500 hc         1 1MT       0.039144
     50 H16         10.4580     1.2710     3.2160 hc         1 1MT       0.039144
     51 H17          9.2050     0.2020     3.8600 hc         1 1MT       0.039144
     52 H18          4.6620    -3.1880     2.3990 hn         1 1MT       0.330500
     53 H19          4.7910    -3.6850     5.2120 h1         1 1MT       0.071700
     54 H20          6.1880    -4.4360     4.4290 h1         1 1MT       0.071700
     55 H21          4.0930     0.9040     5.5800 ha         1 1MT       0.133000
     56 H22          2.5080     2.3940     6.7460 ha         1 1MT       0.151000
     57 H23          2.4910     5.0220     3.3810 ha         1 1MT       0.155000
     58 H24          4.0800     4.1050     1.2670 hn         1 1MT       0.347500
     59 H25          4.6750    -5.6580     2.9010 hx         1 1MT       0.117200
     60 H26          3.2780    -4.9060     3.6840 hx         1 1MT       0.117200
     61 H27          3.9460    -5.9330     5.7190 hn         1 1MT       0.462133
     62 H28          5.2440    -6.6200     5.0030 hn         1 1MT       0.462133
     63 H30          7.7180    -0.3860     3.0940 hn         1 1MT       0.384800
     64 H33          3.7280    -7.0660     4.5680 hn         1 1MT       0.462133
@<TRIPOS>BOND
     1    13    12 1
     2    28    29 1
     3    28    27 1
     4    30    29 2
     5    11    12 1
     6    11    10 1
     7    12    15 1
     8    12    14 1
     9    29    20 1
    10    26    27 ar
    11    26    24 ar
    12    27    21 ar
    13    25    24 1
    14    24    23 ar
    15    10    20 1
    16    10    34 1
    17    20    21 1
    18    20     8 1
    19    21    22 ar
    20    34     9 1
    21    23    22 ar
    22     6     5 ar
    23     6     7 ar
    24     5     4 ar
    25     9     8 1
    26     9    16 1
    27     8     7 1
    28     7     3 ar
    29     4     2 ar
    30     3     2 ar
    31     3    31 1
    32     2     1 1
    33    16    18 1
    34    16    17 2
    35    18    19 1
    36    32    33 1
    37    32    19 1
    38     4    35 1
    39     5    36 1
    40     6    37 1
    41     8    38 1
    42     9    39 1
    43    10    40 1
    44    11    41 1
    45    11    42 1
    46    13    43 1
    47    13    44 1
    48    13    45 1
    49    14    46 1
    50    14    47 1
    51    14    48 1
    52    15    49 1
    53    15    50 1
    54    15    51 1
    55    18    52 1
    56    19    53 1
    57    19    54 1
    58    22    55 1
    59    23    56 1
    60    26    57 1
    61    28    58 1
    62    32    59 1
    63    32    60 1
    64    33    61 1
    65    33    62 1
    66    34    63 1
    67    64    33 1
@<TRIPOS>SUBSTRUCTURE
     1 1MT         1 TEMP              0 ****  ****    0 ROOT
