@<TRIPOS>MOLECULE
1MT
   64    67     1     0     0
SMALL
bcc


@<TRIPOS>ATOM
      1 Cl1          0.0000     0.0000     0.0000 cl         1 1MT       0.019600
      2 C1           1.7360     0.0000     0.0000 ca         1 1MT      -0.087600
      3 C2           2.4300     0.0000     1.2000 ca         1 1MT       0.107900
      4 C3           2.4280    -0.0050    -1.1980 ca         1 1MT      -0.064000
      5 C4           3.8110    -0.0050    -1.1970 ca         1 1MT      -0.095000
      6 C5           4.5030    -0.0000    -0.0010 ca         1 1MT      -0.055000
      7 C6           3.8140    -0.0010     1.1970 ca         1 1MT      -0.159300
      8 C7           4.5690     0.0050     2.5010 c3         1 1MT       0.048600
      9 C8           5.8570    -0.8370     2.3790 c3         1 1MT       0.043500
     10 C9           6.4700     1.2170     3.3940 c3         1 1MT       0.141500
     11 C10          7.3200     2.4720     3.1880 c3         1 1MT      -0.036400
     12 C11          8.6790     2.2850     3.8660 c3         1 1MT      -0.066000
     13 C12          9.5290     3.5410     3.6590 c3         1 1MT      -0.007767
     14 C13          8.4730     2.0500     5.3640 c3         1 1MT      -0.007767
     15 C14          9.3930     1.0800     3.2530 c3         1 1MT      -0.007767
     16 C15          5.8700    -1.9120     3.4360 c          1 1MT       0.565100
     17 O1           6.5190    -1.7590     4.4490 o          1 1MT      -0.624100
     18 N1           5.1600    -3.0420     3.2540 ns         1 1MT      -0.210900
     19 C17          5.1730    -4.0880     4.2810 c3         1 1MT       0.053000
     20 C18          5.0540     1.4220     2.8320 c3         1 1MT      -0.087700
     21 C19          4.1560     2.1080     3.8180 ca         1 1MT      -0.154300
     22 C20          3.7480     1.8110     5.0990 ca         1 1MT      -0.031000
     23 C21          2.8900     2.6660     5.7700 ca         1 1MT      -0.122000
     24 C22          2.4440     3.8200     5.1490 ca         1 1MT      -0.000600
     25 Cl2          1.3670     4.8910     5.9880 cl         1 1MT       0.000600
     26 C23          2.8520     4.1220     3.8640 ca         1 1MT      -0.113000
     27 C24          3.7150     3.2670     3.1840 ca         1 1MT      -0.077400
     28 N2           4.2610     3.3530     1.9010 ns         1 1MT      -0.007100
     29 C25          5.0620     2.3060     1.6180 c          1 1MT       0.633500
     30 O2           5.6680     2.1150     0.5860 o          1 1MT      -0.629500
     31 F1           1.7550     0.0000     2.3710 f          1 1MT      -0.124900
     32 C16          4.2930    -5.2550     3.8320 c3         1 1MT      -0.068200
     33 N3           4.3060    -6.3030     4.8610 nz         1 1MT       0.098400
     34 N4           6.9970     0.0840     2.5830 n7         1 1MT      -0.574200
     35 H1           1.8870    -0.0090    -2.1360 ha         1 1MT       0.124000
     36 H2           4.3520    -0.0070    -2.1360 ha         1 1MT       0.121000
     37 H3           5.5860    -0.0010    -0.0020 ha         1 1MT       0.155000
     38 H4           3.9480    -0.3760     3.3030 hc         1 1MT       0.045700
     39 H5           5.9140    -1.2800     1.3920 h1         1 1MT       0.065700
     40 H6           6.4260     0.9450     4.4420 h1         1 1MT       0.046700
     41 H7           7.4650     2.6400     2.1280 hc         1 1MT       0.040200
     42 H8           6.8140     3.3260     3.6220 hc         1 1MT       0.040200
     43 H9           9.0180     4.3970     4.0820 hc         1 1MT       0.011144
     44 H10         10.4870     3.4130     4.1490 hc         1 1MT       0.011144
     45 H11          9.6840     3.7010     2.5990 hc         1 1MT       0.011144
     46 H12          9.4000     2.2420     5.8900 hc         1 1MT       0.011144
     47 H13          7.7040     2.7180     5.7320 hc         1 1MT       0.011144
     48 H14          8.1700     1.0230     5.5300 hc         1 1MT       0.011144
     49 H15          9.0210     0.9110     2.2500 hc         1 1MT       0.011144
     50 H16         10.4580     1.2710     3.2160 hc         1 1MT       0.011144
     51 H17          9.2050     0.2020     3.8600 hc         1 1MT       0.011144
     52 H18          4.6620    -3.1880     2.3990 hn         1 1MT       0.193500
     53 H19          4.7910    -3.6850     5.2120 h1         1 1MT       0.039700
     54 H20          6.1880    -4.4360     4.4290 h1         1 1MT       0.039700
     55 H21          4.0930     0.9040     5.5800 ha         1 1MT       0.101000
     56 H22          2.5080     2.3940     6.7460 ha         1 1MT       0.121000
     57 H23          2.4910     5.0220     3.3810 ha         1 1MT       0.124000
     58 H24          4.0800     4.1050     1.2670 hn         1 1MT       0.184500
     59 H25          4.6750    -5.6580     2.9010 hx         1 1MT       0.088700
     60 H26          3.2780    -4.9060     3.6840 hx         1 1MT       0.088700
     61 H27          3.9460    -5.9330     5.7190 hn         1 1MT       0.226133
     62 H28          5.2440    -6.6200     5.0030 hn         1 1MT       0.226133
     63 H30          7.7180    -0.3860     3.0940 hn         1 1MT       0.300800
     64 H33          3.7280    -7.0660     4.5680 hn         1 1MT       0.226133
@<TRIPOS>BOND
     1     1     2 1   
     2     2     3 ar  
     3     2     4 ar  
     4     3     7 ar  
     5     3    31 1   
     6     4     5 ar  
     7     4    35 1   
     8     5     6 ar  
     9     5    36 1   
    10     6     7 ar  
    11     6    37 1   
    12     7     8 1   
    13     8     9 1   
    14     8    20 1   
    15     8    38 1   
    16     9    16 1   
    17     9    34 1   
    18     9    39 1   
    19    10    11 1   
    20    10    20 1   
    21    10    34 1   
    22    10    40 1   
    23    11    12 1   
    24    11    41 1   
    25    11    42 1   
    26    12    13 1   
    27    12    14 1   
    28    12    15 1   
    29    13    43 1   
    30    13    44 1   
    31    13    45 1   
    32    14    46 1   
    33    14    47 1   
    34    14    48 1   
    35    15    49 1   
    36    15    50 1   
    37    15    51 1   
    38    16    17 2   
    39    16    18 1   
    40    18    19 1   
    41    18    52 1   
    42    19    32 1   
    43    19    53 1   
    44    19    54 1   
    45    20    21 1   
    46    20    29 1   
    47    21    22 ar  
    48    21    27 ar  
    49    22    23 ar  
    50    22    55 1   
    51    23    24 ar  
    52    23    56 1   
    53    24    25 1   
    54    24    26 ar  
    55    26    27 ar  
    56    26    57 1   
    57    27    28 1   
    58    28    29 1   
    59    28    58 1   
    60    29    30 2   
    61    32    33 1   
    62    32    59 1   
    63    32    60 1   
    64    33    61 1   
    65    33    62 1   
    66    33    64 1   
    67    34    63 1   
@<TRIPOS>SUBSTRUCTURE
     1 1MT         1 TEMP              0 ****  ****    0 ROOT
