@<TRIPOS>MOLECULE
1MT
   65    68     1     0     0
SMALL
bcc


@<TRIPOS>ATOM
      1 Cl1          2.4330    -2.9520    -0.4500 cl         1 1MT      -0.042400
      2 C1           3.2930    -1.5340    -0.1020 ca         1 1MT      -0.007600
      3 C2           3.8160    -1.2940     1.1830 ca         1 1MT       0.074900
      4 C3           3.4930    -0.5850    -1.1130 ca         1 1MT      -0.067000
      5 C4           4.2260     0.5650    -0.8450 ca         1 1MT      -0.095000
      6 C5           4.7430     0.8020     0.4320 ca         1 1MT      -0.080000
      7 C6           4.5220    -0.0960     1.4760 ca         1 1MT      -0.121300
      8 C7           4.9820     0.1170     2.8730 c3         1 1MT       0.015600
      9 C8           6.5120    -0.1750     3.0690 c3         1 1MT       0.105500
     10 C9           5.8220     1.3080     4.7950 c3         1 1MT       0.190500
     11 C10          6.2530     2.6500     5.3780 c3         1 1MT      -0.093400
     12 C11          6.8450     2.6020     6.7880 c3         1 1MT      -0.054000
     13 C12          7.1790     4.0410     7.1810 c3         1 1MT      -0.090433
     14 C13          5.8420     2.0480     7.7870 c3         1 1MT      -0.090433
     15 C14          8.1230     1.7800     6.8340 c3         1 1MT      -0.090433
     16 C15          6.7160    -1.6880     3.0840 c          1 1MT       0.582100
     17 O1           6.8840    -2.4310     2.1290 o          1 1MT      -0.481100
     18 N1           6.6700    -2.3990     4.4360 ny         1 1MT      -0.695800
     19 C17          5.5210    -3.3310     4.5820 c3         1 1MT       0.078800
     20 C18          4.8440     1.4790     3.5820 c3         1 1MT      -0.086700
     21 C19          3.4450     1.8640     3.9500 ca         1 1MT      -0.174300
     22 C20          2.4890     1.2200     4.7120 ca         1 1MT      -0.066000
     23 C21          1.2430     1.8280     4.9010 ca         1 1MT      -0.145000
     24 C22          0.9660     3.0740     4.3280 ca         1 1MT       0.069400
     25 Cl2         -0.5470     3.7850     4.5710 cl         1 1MT      -0.021400
     26 C23          1.9200     3.7560     3.5520 ca         1 1MT      -0.138000
     27 C24          3.1560     3.1440     3.3690 ca         1 1MT       0.071600
     28 N2           4.2690     3.6120     2.6390 ns         1 1MT      -0.449100
     29 C25          5.3150     2.6960     2.7310 c          1 1MT       0.705500
     30 O2           6.4430     2.8170     2.2330 o          1 1MT      -0.614500
     31 F1           3.6610    -2.2330     2.1650 f          1 1MT      -0.206900
     32 C16          5.6440    -4.6890     3.8770 c3         1 1MT       0.086800
     33 N3           5.1960    -4.7170     2.4590 nz         1 1MT      -0.852600
     34 N4           6.9230     0.4490     4.3170 n7         1 1MT      -0.850200
     35 H1           3.0710    -0.7570    -2.1200 ha         1 1MT       0.189000
     36 H2           4.4000     1.3040    -1.6470 ha         1 1MT       0.181000
     37 H3           5.3380     1.7170     0.5920 ha         1 1MT       0.178000
     38 H4           4.3990    -0.5940     3.5360 hc         1 1MT       0.052700
     39 H5           7.0910     0.1990     2.1660 h1         1 1MT       0.156700
     40 H6           5.2740     0.7220     5.5910 h1         1 1MT       0.071700
     41 H7           5.3340     3.2990     5.4120 hc         1 1MT       0.076700
     42 H8           6.9930     3.1480     4.6920 hc         1 1MT       0.076700
     43 H9           7.9310     4.4730     6.4780 hc         1 1MT       0.041811
     44 H10          6.2600     4.6740     7.1600 hc         1 1MT       0.041811
     45 H11          7.6030     4.0680     8.2140 hc         1 1MT       0.041811
     46 H12          6.2310     2.1790     8.8270 hc         1 1MT       0.041811
     47 H13          5.6640     0.9590     7.6200 hc         1 1MT       0.041811
     48 H14          4.8680     2.5890     7.7050 hc         1 1MT       0.041811
     49 H15          8.8090     2.0710     6.0030 hc         1 1MT       0.041811
     50 H16          8.6520     1.9580     7.8030 hc         1 1MT       0.041811
     51 H17          7.9010     0.6880     6.7630 hc         1 1MT       0.041811
     52 H18          6.6000    -1.6730     5.1750 hn         1 1MT       0.488300
     53 H19          5.4110    -3.5590     5.6910 hx         1 1MT       0.145200
     54 H20          4.5850    -2.7830     4.2520 hx         1 1MT       0.145200
     55 H21          2.6960     0.2450     5.1750 ha         1 1MT       0.121000
     56 H22          0.4770     1.3210     5.5110 ha         1 1MT       0.168000
     57 H23          1.6890     4.7390     3.1110 ha         1 1MT       0.179000
     58 H24          4.3310     4.5120     2.2290 hn         1 1MT       0.369500
     59 H25          4.9850    -5.4120     4.4550 hx         1 1MT       0.143700
     60 H26          6.7030    -5.0840     3.9170 hx         1 1MT       0.143700
     61 H27          5.8980    -4.2870     1.8380 hn         1 1MT       0.485467
     62 H28          5.0570    -5.6950     2.1650 hn         1 1MT       0.485467
     63 H30          7.7770     0.9720     4.2080 hn         1 1MT       0.425800
     64 H33          4.3050    -4.2060     2.3400 hn         1 1MT       0.485467
     65 H121         7.5560    -2.9020     4.5780 hn         1 1MT       0.488300
@<TRIPOS>BOND
     1     1     2 1   
     2     2     3 ar  
     3     2     4 ar  
     4     3     7 ar  
     5     3    31 1   
     6     4     5 ar  
     7     4    35 1   
     8     5     6 ar  
     9     5    36 1   
    10     6     7 ar  
    11     6    37 1   
    12     7     8 1   
    13     8     9 1   
    14     8    20 1   
    15     8    38 1   
    16     9    16 1   
    17     9    34 1   
    18     9    39 1   
    19    10    11 1   
    20    10    20 1   
    21    10    34 1   
    22    10    40 1   
    23    11    12 1   
    24    11    41 1   
    25    11    42 1   
    26    12    13 1   
    27    12    14 1   
    28    12    15 1   
    29    13    43 1   
    30    13    44 1   
    31    13    45 1   
    32    14    46 1   
    33    14    47 1   
    34    14    48 1   
    35    15    49 1   
    36    15    50 1   
    37    15    51 1   
    38    16    17 2   
    39    16    18 1   
    40    18    19 1   
    41    18    52 1   
    42    18    65 1   
    43    19    32 1   
    44    19    53 1   
    45    19    54 1   
    46    20    21 1   
    47    20    29 1   
    48    21    22 ar  
    49    21    27 ar  
    50    22    23 ar  
    51    22    55 1   
    52    23    24 ar  
    53    23    56 1   
    54    24    25 1   
    55    24    26 ar  
    56    26    27 ar  
    57    26    57 1   
    58    27    28 1   
    59    28    29 1   
    60    28    58 1   
    61    29    30 2   
    62    32    33 1   
    63    32    59 1   
    64    32    60 1   
    65    33    61 1   
    66    33    62 1   
    67    33    64 1   
    68    34    63 1   
@<TRIPOS>SUBSTRUCTURE
     1 1MT         1 TEMP              0 ****  ****    0 ROOT
