@<TRIPOS>MOLECULE
1MU
   34    35     1     0     0
SMALL
bcc


@<TRIPOS>ATOM
      1 CAI          0.0000     0.0000     0.0000 ca         1 1MU      -0.136500
      2 CAK          1.3790     0.0000     0.0000 ca         1 1MU      -0.077000
      3 CAT          2.0750     0.0000     1.2110 ca         1 1MU      -0.116600
      4 CAQ          3.5530     0.0010     1.2170 c          1 1MU       0.981200
      5 OAE          4.2210     0.0000     2.3870 o          1 1MU      -0.897300
      6 OAA          4.1640     0.0020     0.1680 o          1 1MU      -0.897300
      7 CAL          1.3690    -0.0010     2.4150 ca         1 1MU      -0.077000
      8 CAJ         -0.0110    -0.0020     2.4000 ca         1 1MU      -0.136500
      9 CAS         -0.6940    -0.0010     1.1970 ca         1 1MU      -0.112300
     10 CAN         -2.2010     0.0050     1.1900 c3         1 1MU       0.024900
     11 CAM         -2.7170    -1.4360     1.1840 c3         1 1MU       0.220800
     12 NAO         -4.1820    -1.4300     1.1770 n7         1 1MU      -0.555100
     13 SAW         -5.0130    -2.8040     0.7750 sy         1 1MU       1.052200
     14 OAC         -6.3930    -2.4880     0.8960 o          1 1MU      -0.604800
     15 OAD         -4.4300    -3.2890    -0.4260 o          1 1MU      -0.604800
     16 CAU         -4.6670    -4.0050     2.0170 cc         1 1MU      -0.190500
     17 CAH         -4.0020    -5.1810     1.7670 cc         1 1MU      -0.048000
     18 CAG         -3.8290    -5.9730     2.8310 cd         1 1MU      -0.124100
     19 SAP         -4.5040    -5.2710     4.2310 ss         1 1MU      -0.233800
     20 CAV         -5.0290    -3.8570     3.3280 cd         1 1MU       0.168300
     21 CAR         -5.7400    -2.7070     3.8880 c          1 1MU       0.980200
     22 OAF         -6.1460    -2.7260     5.1740 o          1 1MU      -0.852300
     23 OAB         -5.9660    -1.7340     3.1940 o          1 1MU      -0.852300
     24 H1          -0.5410     0.0000    -0.9390 ha         1 1MU       0.091500
     25 H2           1.9220     0.0010    -0.9380 ha         1 1MU       0.118500
     26 H4           1.9020    -0.0010     3.3580 ha         1 1MU       0.118500
     27 H5          -0.5610    -0.0020     3.3340 ha         1 1MU       0.091500
     28 H6          -2.5640     0.5150     2.0740 hc         1 1MU       0.011700
     29 H7          -2.5550     0.5190     0.3050 hc         1 1MU       0.011700
     30 H8          -2.3620    -1.9500     2.0690 h1         1 1MU       0.015200
     31 H9          -2.3540    -1.9460     0.3000 h1         1 1MU       0.015200
     32 H10         -4.6790    -0.5840     1.3720 hn         1 1MU       0.363800
     33 H11         -3.6440    -5.4480     0.7790 ha         1 1MU       0.121000
     34 H12         -3.3280    -6.9330     2.8070 h4         1 1MU       0.131000
@<TRIPOS>BOND
     1     1     2 ar  
     2     1     9 ar  
     3     1    24 1   
     4     2     3 ar  
     5     2    25 1   
     6     3     4 1   
     7     3     7 ar  
     8     4     5 1   
     9     4     6 1   
    10     7     8 ar  
    11     7    26 1   
    12     8     9 ar  
    13     8    27 1   
    14     9    10 1   
    15    10    11 1   
    16    10    28 1   
    17    10    29 1   
    18    11    12 1   
    19    11    30 1   
    20    11    31 1   
    21    12    13 1   
    22    12    32 1   
    23    13    14 2   
    24    13    15 2   
    25    13    16 1   
    26    16    17 1   
    27    16    20 2   
    28    17    18 2   
    29    17    33 1   
    30    18    19 1   
    31    18    34 1   
    32    19    20 1   
    33    20    21 1   
    34    21    22 1   
    35    21    23 1   
@<TRIPOS>SUBSTRUCTURE
     1 1MU         1 TEMP              0 ****  ****    0 ROOT
