@<TRIPOS>MOLECULE
molecule
   34    35     1     0     0
SMALL
bcc


@<TRIPOS>ATOM
      1 CAI          0.0000     0.0000     0.0000 ca         1 1MU      -0.155500
      2 CAK          1.3790     0.0000     0.0000 ca         1 1MU      -0.104000
      3 CAT          2.0750     0.0000     1.2110 ca         1 1MU      -0.113600
      4 CAQ          3.5530     0.0010     1.2170 c          1 1MU       0.887200
      5 OAE          4.2210     0.0000     2.3870 o          1 1MU      -0.849300
      6 OAA          4.1640     0.0020     0.1680 o          1 1MU      -0.849300
      7 CAL          1.3690    -0.0010     2.4150 ca         1 1MU      -0.104000
      8 CAJ         -0.0110    -0.0020     2.4000 ca         1 1MU      -0.155500
      9 CAS         -0.6940    -0.0010     1.1970 ca         1 1MU      -0.106300
     10 CAN         -2.2010     0.0050     1.1900 c3         1 1MU      -0.038100
     11 CAM         -2.7170    -1.4360     1.1840 c3         1 1MU       0.238800
     12 NAO         -4.1820    -1.4300     1.1770 n7         1 1MU      -0.896100
     13 SAW         -5.0130    -2.8040     0.7750 sy         1 1MU       1.465200
     14 OAC         -6.3930    -2.4880     0.8960 o          1 1MU      -0.662300
     15 OAD         -4.4300    -3.2890    -0.4260 o          1 1MU      -0.662300
     16 CAU         -4.6670    -4.0050     2.0170 cc         1 1MU      -0.350500
     17 CAH         -4.0020    -5.1810     1.7670 cc         1 1MU      -0.082000
     18 CAG         -3.8290    -5.9730     2.8310 cd         1 1MU      -0.185100
     19 SAP         -4.5040    -5.2710     4.2310 ss         1 1MU      -0.087800
     20 CAV         -5.0290    -3.8570     3.3280 cd         1 1MU       0.102300
     21 CAR         -5.7400    -2.7070     3.8880 c          1 1MU       0.890200
     22 OAF         -6.1460    -2.7260     5.1740 o          1 1MU      -0.810800
     23 OAB         -5.9660    -1.7340     3.1940 o          1 1MU      -0.810800
     24 H1          -0.5410     0.0000    -0.9390 ha         1 1MU       0.111000
     25 H2           1.9220     0.0010    -0.9380 ha         1 1MU       0.143000
     26 H4           1.9020    -0.0010     3.3580 ha         1 1MU       0.143000
     27 H5          -0.5610    -0.0020     3.3340 ha         1 1MU       0.111000
     28 H6          -2.5640     0.5150     2.0740 hc         1 1MU       0.041700
     29 H7          -2.5550     0.5190     0.3050 hc         1 1MU       0.041700
     30 H8          -2.3620    -1.9500     2.0690 h1         1 1MU       0.046200
     31 H9          -2.3540    -1.9460     0.3000 h1         1 1MU       0.046200
     32 H10         -4.6790    -0.5840     1.3720 hn         1 1MU       0.464800
     33 H11         -3.6440    -5.4480     0.7790 ha         1 1MU       0.143000
     34 H12         -3.3280    -6.9330     2.8070 h4         1 1MU       0.144000
@<TRIPOS>BOND
     1     6     4 1
     2     5     4 1
     3     4     3 1
     4     3     2 ar
     5     3     7 ar
     6     2     1 ar
     7     7     8 ar
     8     1     9 ar
     9     8     9 ar
    10     9    10 1
    11    10    11 1
    12    14    13 2
    13    11    12 1
    14    15    13 2
    15    13    12 1
    16    13    16 1
    17    17    16 1
    18    17    18 2
    19    16    20 2
    20    18    19 1
    21    23    21 1
    22    20    21 1
    23    20    19 1
    24    21    22 1
    25     1    24 1
    26     2    25 1
    27     7    26 1
    28     8    27 1
    29    10    28 1
    30    10    29 1
    31    11    30 1
    32    11    31 1
    33    12    32 1
    34    17    33 1
    35    18    34 1
@<TRIPOS>SUBSTRUCTURE
     1 1MU         1 TEMP              0 ****  ****    0 ROOT
