@<TRIPOS>MOLECULE
1MU
   35    36     1     0     0
SMALL
bcc


@<TRIPOS>ATOM
      1 CAI         -0.3640    -1.0420     1.0410 ca         1 1MU      -0.146500
      2 CAK          0.9520    -1.2750     0.6510 ca         1 1MU      -0.107000
      3 CAT          1.9710    -0.3930     1.0250 ca         1 1MU      -0.107600
      4 CAQ          3.4090    -0.6450     0.5870 c          1 1MU       0.907200
      5 OAE          4.2900     0.1740     0.9690 o          1 1MU      -0.822300
      6 OAA          3.6330    -1.6570    -0.1340 o          1 1MU      -0.822300
      7 CAL          1.6540     0.7240     1.8050 ca         1 1MU      -0.107000
      8 CAJ          0.3400     0.9620     2.1980 ca         1 1MU      -0.146500
      9 CAS         -0.6790     0.0810     1.8150 ca         1 1MU      -0.149300
     10 CAN         -2.0830     0.3380     2.2290 c3         1 1MU      -0.031100
     11 CAM         -2.6990     1.3780     1.2910 c3         1 1MU       0.110800
     12 NAO         -4.1190     1.6670     1.5750 ny         1 1MU      -0.719900
     13 SAW         -4.8490     3.0450     0.5900 sy         1 1MU       1.512200
     14 OAC         -3.7390     3.8060     0.2100 o          1 1MU      -0.612300
     15 OAD         -5.7030     3.6550     1.4960 o          1 1MU      -0.612300
     16 CAU         -5.4860     2.2460    -0.6260 cc         1 1MU      -0.579500
     17 CAH         -5.0160     2.4600    -1.9780 cc         1 1MU      -0.042000
     18 CAG         -5.7380     1.7400    -2.8910 cd         1 1MU      -0.239100
     19 SAP         -6.9280     0.8370    -2.1450 ss         1 1MU       0.244200
     20 CAV         -6.5530     1.3300    -0.6340 cd         1 1MU      -0.041700
     21 CAR         -7.2860     0.7890     0.5950 c          1 1MU       0.933200
     22 OAF         -8.5110     0.5800     0.4890 o          1 1MU      -0.777800
     23 OAB         -6.5730     0.5710     1.6190 o          1 1MU      -0.777800
     24 H1          -1.1580    -1.7430     0.7460 ha         1 1MU       0.106000
     25 H2           1.2220    -2.1530     0.0410 ha         1 1MU       0.158000
     26 H4           2.4710     1.4050     2.0950 ha         1 1MU       0.158000
     27 H5           0.0980     1.8410     2.8120 ha         1 1MU       0.106000
     28 H6          -2.1110     0.7170     3.2850 hc         1 1MU       0.051700
     29 H7          -2.6810    -0.6120     2.1920 hc         1 1MU       0.051700
     30 H8          -2.1150     2.3420     1.3690 hx         1 1MU       0.099700
     31 H9          -2.6260     1.0070     0.2290 hx         1 1MU       0.099700
     32 H10         -4.6860     0.8070     1.4180 hn         1 1MU       0.472300
     33 H11         -4.1770     3.1300    -2.2030 ha         1 1MU       0.178000
     34 H12         -5.5690     1.7400    -3.9670 h4         1 1MU       0.182000
     35 HAO2        -4.2300     1.8700     2.5700 hn         1 1MU       0.472300
@<TRIPOS>BOND
     1     1     2 ar  
     2     1     9 ar  
     3     1    24 1   
     4     2     3 ar  
     5     2    25 1   
     6     3     4 1   
     7     3     7 ar  
     8     4     5 1   
     9     4     6 1   
    10     7     8 ar  
    11     7    26 1   
    12     8     9 ar  
    13     8    27 1   
    14     9    10 1   
    15    10    11 1   
    16    10    28 1   
    17    10    29 1   
    18    11    12 1   
    19    11    30 1   
    20    11    31 1   
    21    12    13 1   
    22    12    32 1   
    23    12    35 1   
    24    13    14 2   
    25    13    15 2   
    26    13    16 1   
    27    16    17 1   
    28    16    20 2   
    29    17    18 2   
    30    17    33 1   
    31    18    19 1   
    32    18    34 1   
    33    19    20 1   
    34    20    21 1   
    35    21    22 1   
    36    21    23 1   
@<TRIPOS>SUBSTRUCTURE
     1 1MU         1 TEMP              0 ****  ****    0 ROOT
