@<TRIPOS>MOLECULE
molecule
   37    39     1     0     0
SMALL
bcc


@<TRIPOS>ATOM
      1 OAU          0.0000     0.0000     0.0000 o          1 1MV      -0.847833
      2 PAS          1.4800     0.0000     0.0000 p5         1 1MV       0.996700
      3 OAV          2.0180     0.0000     1.5180 o          1 1MV      -0.847833
      4 OAW          2.0180    -1.3150    -0.7590 o          1 1MV      -0.847833
      5 CAR          2.0870     1.4890    -0.8590 c3         1 1MV       0.056100
      6 PAT          3.9110     1.4890    -0.8590 p5         1 1MV       0.996700
      7 OAX          4.4040     1.4890     0.5360 o          1 1MV      -0.847833
      8 OAZ          4.4480     0.1750    -1.6180 o          1 1MV      -0.847833
      9 OAY          4.4480     2.8040    -1.6180 o          1 1MV      -0.847833
     10 NAJ          1.5990     1.4890    -2.2400 nu         1 1MV      -0.627900
     11 C4           1.6610     2.6450    -2.9960 ca         1 1MV       0.625200
     12 N3           2.1590     3.7590    -2.4810 nb         1 1MV      -0.642000
     13 C2           2.2250     4.8710    -3.1900 ca         1 1MV       0.624900
     14 N1           1.8040     4.9350    -4.4330 nb         1 1MV      -0.841000
     15 C6           1.2840     3.8620    -5.0420 ca         1 1MV       0.561600
     16 SAE          0.6510     3.6490    -6.6680 ss         1 1MV      -0.392900
     17 C5           1.1960     2.6560    -4.3380 ca         1 1MV      -0.380400
     18 CAC          0.6190     1.5970    -5.1380 cc         1 1MV      -0.070200
     19 CAD          0.2750     1.9610    -6.3740 cd         1 1MV      -0.124600
     20 CAK         -0.3340     1.0560    -7.3710 ca         1 1MV       0.039200
     21 CAL         -0.6490     1.5280    -8.6460 ca         1 1MV      -0.182500
     22 CAM         -1.2170     0.6780    -9.5720 ca         1 1MV      -0.111500
     23 CAN         -1.4750    -0.6400    -9.2400 ca         1 1MV      -0.249300
     24 CAQ         -2.0940    -1.5640   -10.2570 c3         1 1MV      -0.008800
     25 CAO         -1.1640    -1.1140    -7.9780 ca         1 1MV      -0.111500
     26 CAP         -0.5910    -0.2760    -7.0440 ca         1 1MV      -0.182500
     27 H3           1.7260     2.3740    -0.3490 h1         1 1MV       0.077700
     28 H6           1.2010     0.6580    -2.6300 hn         1 1MV       0.465800
     29 H7           2.6390     5.7610    -2.7320 h5         1 1MV       0.014100
     30 H8           0.4700     0.5930    -4.7610 ha         1 1MV       0.143000
     31 H10         -0.4480     2.5600    -8.9080 ha         1 1MV       0.126500
     32 H11         -1.4610     1.0430   -10.5620 ha         1 1MV       0.080000
     33 H12         -2.4900    -0.9820   -11.0800 hc         1 1MV       0.000033
     34 H13         -1.3420    -2.2490   -10.6280 hc         1 1MV       0.000033
     35 H14         -2.8960    -2.1260    -9.7930 hc         1 1MV       0.000033
     36 H15         -1.3660    -2.1480    -7.7240 ha         1 1MV       0.080000
     37 H16         -0.3490    -0.6490    -6.0560 ha         1 1MV       0.126500
@<TRIPOS>BOND
     1     1     2 1   
     2     2     3 1   
     3     2     4 1   
     4     2     5 1   
     5     5     6 1   
     6     5    10 1   
     7     6     7 1   
     8     6     8 1   
     9     6     9 1   
    10    10    11 1   
    11    11    12 ar  
    12    11    17 ar  
    13    12    13 ar  
    14    13    14 ar  
    15    14    15 ar  
    16    15    16 1   
    17    15    17 ar  
    18    16    19 1   
    19    17    18 1   
    20    18    19 2   
    21    19    20 1   
    22    20    21 ar  
    23    20    26 ar  
    24    21    22 ar  
    25    22    23 ar  
    26    23    24 1   
    27    23    25 ar  
    28    25    26 ar  
    29     5    27 1   
    30    10    28 1   
    31    13    29 1   
    32    18    30 1   
    33    21    31 1   
    34    22    32 1   
    35    24    33 1   
    36    24    34 1   
    37    24    35 1   
    38    25    36 1   
    39    26    37 1   
@<TRIPOS>SUBSTRUCTURE
     1 1MV         1 TEMP              0 ****  ****    0 ROOT
