@<TRIPOS>MOLECULE
1MW
   37    38     1     0     0
SMALL
bcc


@<TRIPOS>ATOM
      1 CAI          0.0000     0.0000     0.0000 ca         1 1MW      -0.137500
      2 CAK          1.3790     0.0000     0.0000 ca         1 1MW      -0.075500
      3 CAU          2.0740     0.0000     1.2110 ca         1 1MW      -0.114600
      4 CAR          3.5510    -0.0000     1.2200 c          1 1MW       0.980200
      5 OAE          4.2180     0.0010     2.3900 o          1 1MW      -0.895800
      6 OAA          4.1640    -0.0000     0.1720 o          1 1MW      -0.895800
      7 CAL          1.3660     0.0000     2.4150 ca         1 1MW      -0.075500
      8 CAJ         -0.0140     0.0010     2.4000 ca         1 1MW      -0.137500
      9 CAT         -0.6950     0.0010     1.1960 ca         1 1MW      -0.116300
     10 CAO         -2.2030     0.0070     1.1880 c3         1 1MW       0.040900
     11 CAM         -2.7180    -1.4330     1.1820 c3         1 1MW      -0.040400
     12 CAN         -4.2480    -1.4270     1.1730 c3         1 1MW       0.219800
     13 NAP         -4.7420    -2.8060     1.1680 n7         1 1MW      -0.551100
     14 SAX         -6.3210    -3.1210     1.5530 sy         1 1MW       1.051200
     15 OAC         -6.4940    -4.5260     1.4230 o          1 1MW      -0.602800
     16 OAD         -6.5900    -2.4140     2.7550 o          1 1MW      -0.602800
     17 CAV         -7.3200    -2.3800     0.3050 cc         1 1MW      -0.195500
     18 CAH         -8.2010    -1.3560     0.5530 cc         1 1MW      -0.049000
     19 CAG         -8.8770    -0.9170    -0.5170 cd         1 1MW      -0.130100
     20 SAQ         -8.4330    -1.7840    -1.9180 ss         1 1MW      -0.235800
     21 CAW         -7.2910    -2.7640    -1.0070 cd         1 1MW       0.174300
     22 CAS         -6.4480    -3.8220    -1.5650 c          1 1MW       0.976200
     23 OAF         -6.5910    -4.1900    -2.8540 o          1 1MW      -0.847300
     24 OAB         -5.6170    -4.3690    -0.8650 o          1 1MW      -0.847300
     25 H1          -0.5400    -0.0000    -0.9390 ha         1 1MW       0.089000
     26 H2           1.9230    -0.0010    -0.9370 ha         1 1MW       0.119500
     27 H4           1.8990     0.0010     3.3580 ha         1 1MW       0.119500
     28 H5          -0.5640     0.0020     3.3330 ha         1 1MW       0.089000
     29 H6          -2.5570     0.5210     0.3030 hc         1 1MW       0.005700
     30 H7          -2.5660     0.5170     2.0720 hc         1 1MW       0.005700
     31 H8          -2.3540    -1.9430     0.2980 hc         1 1MW       0.024200
     32 H9          -2.3640    -1.9470     2.0670 hc         1 1MW       0.024200
     33 H10         -4.6020    -0.9130     0.2880 h1         1 1MW       0.004700
     34 H11         -4.6120    -0.9160     2.0570 h1         1 1MW       0.004700
     35 H12         -4.1150    -3.5610     0.9710 hn         1 1MW       0.370800
     36 H13         -8.3390    -0.9340     1.5410 ha         1 1MW       0.119000
     37 H14         -9.6090    -0.1180    -0.4950 h4         1 1MW       0.129000
@<TRIPOS>BOND
     1     1     2 ar  
     2     1     9 ar  
     3     1    25 1   
     4     2     3 ar  
     5     2    26 1   
     6     3     4 1   
     7     3     7 ar  
     8     4     5 1   
     9     4     6 1   
    10     7     8 ar  
    11     7    27 1   
    12     8     9 ar  
    13     8    28 1   
    14     9    10 1   
    15    10    11 1   
    16    10    29 1   
    17    10    30 1   
    18    11    12 1   
    19    11    31 1   
    20    11    32 1   
    21    12    13 1   
    22    12    33 1   
    23    12    34 1   
    24    13    14 1   
    25    13    35 1   
    26    14    15 2   
    27    14    16 2   
    28    14    17 1   
    29    17    18 1   
    30    17    21 2   
    31    18    19 2   
    32    18    36 1   
    33    19    20 1   
    34    19    37 1   
    35    20    21 1   
    36    21    22 1   
    37    22    23 1   
    38    22    24 1   
@<TRIPOS>SUBSTRUCTURE
     1 1MW         1 TEMP              0 ****  ****    0 ROOT
