@<TRIPOS>MOLECULE
molecule
   37    38     1     0     0
SMALL
bcc


@<TRIPOS>ATOM
      1 CAI          0.0000     0.0000     0.0000 ca         1 1MW      -0.157000
      2 CAK          1.3790     0.0000     0.0000 ca         1 1MW      -0.102500
      3 CAU          2.0740     0.0000     1.2110 ca         1 1MW      -0.112600
      4 CAR          3.5510    -0.0000     1.2200 c          1 1MW       0.886200
      5 OAE          4.2180     0.0010     2.3900 o          1 1MW      -0.847800
      6 OAA          4.1640    -0.0000     0.1720 o          1 1MW      -0.847800
      7 CAL          1.3660     0.0000     2.4150 ca         1 1MW      -0.102500
      8 CAJ         -0.0140     0.0010     2.4000 ca         1 1MW      -0.157000
      9 CAT         -0.6950     0.0010     1.1960 ca         1 1MW      -0.105300
     10 CAO         -2.2030     0.0070     1.1880 c3         1 1MW      -0.029100
     11 CAM         -2.7180    -1.4330     1.1820 c3         1 1MW      -0.085400
     12 CAN         -4.2480    -1.4270     1.1730 c3         1 1MW       0.233800
     13 NAP         -4.7420    -2.8060     1.1680 n7         1 1MW      -0.891100
     14 SAX         -6.3210    -3.1210     1.5530 sy         1 1MW       1.463200
     15 OAC         -6.4940    -4.5260     1.4230 o          1 1MW      -0.659800
     16 OAD         -6.5900    -2.4140     2.7550 o          1 1MW      -0.659800
     17 CAV         -7.3200    -2.3800     0.3050 cc         1 1MW      -0.353500
     18 CAH         -8.2010    -1.3560     0.5530 cc         1 1MW      -0.083000
     19 CAG         -8.8770    -0.9170    -0.5170 cd         1 1MW      -0.189100
     20 SAQ         -8.4330    -1.7840    -1.9180 ss         1 1MW      -0.090800
     21 CAW         -7.2910    -2.7640    -1.0070 cd         1 1MW       0.107300
     22 CAS         -6.4480    -3.8220    -1.5650 c          1 1MW       0.888200
     23 OAF         -6.5910    -4.1900    -2.8540 o          1 1MW      -0.805800
     24 OAB         -5.6170    -4.3690    -0.8650 o          1 1MW      -0.805800
     25 H1          -0.5400    -0.0000    -0.9390 ha         1 1MW       0.108500
     26 H2           1.9230    -0.0010    -0.9370 ha         1 1MW       0.144000
     27 H4           1.8990     0.0010     3.3580 ha         1 1MW       0.144000
     28 H5          -0.5640     0.0020     3.3330 ha         1 1MW       0.108500
     29 H6          -2.5570     0.5210     0.3030 hc         1 1MW       0.035200
     30 H7          -2.5660     0.5170     2.0720 hc         1 1MW       0.035200
     31 H8          -2.3540    -1.9430     0.2980 hc         1 1MW       0.053700
     32 H9          -2.3640    -1.9470     2.0670 hc         1 1MW       0.053700
     33 H10         -4.6020    -0.9130     0.2880 h1         1 1MW       0.035200
     34 H11         -4.6120    -0.9160     2.0570 h1         1 1MW       0.035200
     35 H12         -4.1150    -3.5610     0.9710 hn         1 1MW       0.471800
     36 H13         -8.3390    -0.9340     1.5410 ha         1 1MW       0.141000
     37 H14         -9.6090    -0.1180    -0.4950 h4         1 1MW       0.142000
@<TRIPOS>BOND
     1     6     4 1   
     2     2     1 ar  
     3     2     3 ar  
     4     1     9 ar  
     5     4     3 1   
     6     4     5 1   
     7     3     7 ar  
     8     9    10 1   
     9     9     8 ar  
    10    10    11 1   
    11     7     8 ar  
    12    11    12 1   
    13    15    14 2   
    14    12    13 1   
    15    13    14 1   
    16    14    16 2   
    17    14    17 1   
    18    18    17 1   
    19    18    19 2   
    20    17    21 2   
    21    19    20 1   
    22    24    22 1   
    23    21    22 1   
    24    21    20 1   
    25    22    23 1   
    26     1    25 1   
    27     2    26 1   
    28     7    27 1   
    29     8    28 1   
    30    10    29 1   
    31    10    30 1   
    32    11    31 1   
    33    11    32 1   
    34    12    33 1   
    35    12    34 1   
    36    13    35 1   
    37    18    36 1   
    38    19    37 1   
@<TRIPOS>SUBSTRUCTURE
     1 1MW         1 TEMP              0 ****  ****    0 ROOT
