@<TRIPOS>MOLECULE
1MW
   38    39     1     0     0
SMALL
bcc


@<TRIPOS>ATOM
      1 CAI         -0.8900     1.0580     2.5200 ca         1 1MW      -0.149000
      2 CAK         -0.1750     0.4980     3.5760 ca         1 1MW      -0.113000
      3 CAU          0.0060    -0.8860     3.6560 ca         1 1MW      -0.110600
      4 CAR          0.6680    -1.5110     4.8740 c          1 1MW       0.910200
      5 OAE          1.4530    -2.4800     4.6990 o          1 1MW      -0.827300
      6 OAA          0.3640    -1.0320     6.0070 o          1 1MW      -0.827300
      7 CAL         -0.4850    -1.6970     2.6290 ca         1 1MW      -0.113000
      8 CAJ         -1.2140    -1.1430     1.5790 ca         1 1MW      -0.149000
      9 CAT         -1.4480     0.2360     1.5320 ca         1 1MW      -0.142300
     10 CAO         -2.3200     0.8180     0.4760 c3         1 1MW      -0.020100
     11 CAM         -3.6030     1.3930     1.0570 c3         1 1MW      -0.093400
     12 CAN         -4.3830     0.3110     1.7970 c3         1 1MW       0.114800
     13 NAP         -5.4030     0.8220     2.7270 ny         1 1MW      -0.713900
     14 SAX         -5.8410    -0.3920     4.0870 sy         1 1MW       1.530200
     15 OAC         -5.7430    -1.6230     3.4290 o          1 1MW      -0.625300
     16 OAD         -7.1370    -0.0210     4.4080 o          1 1MW      -0.625300
     17 CAV         -4.6650    -0.0890     5.0760 cc         1 1MW      -0.614500
     18 CAH         -3.6090    -1.0580     5.3070 cc         1 1MW      -0.066000
     19 CAG         -2.6600    -0.5870     6.1700 cd         1 1MW      -0.192100
     20 SAQ         -3.0320     0.9530     6.6930 ss         1 1MW       0.280200
     21 CAW         -4.4010     1.0800     5.8220 cd         1 1MW      -0.071700
     22 CAS         -5.2310     2.3560     5.7760 c          1 1MW       0.929200
     23 OAF         -5.4920     2.9350     6.8510 o          1 1MW      -0.788800
     24 OAB         -5.5800     2.7620     4.6230 o          1 1MW      -0.788800
     25 H1          -1.0360     2.1460     2.4680 ha         1 1MW       0.111000
     26 H2           0.2360     1.1330     4.3760 ha         1 1MW       0.146000
     27 H4          -0.2880    -2.7800     2.6720 ha         1 1MW       0.146000
     28 H5          -1.6150    -1.7930     0.7870 ha         1 1MW       0.111000
     29 H6          -1.7740     1.6440    -0.0550 hc         1 1MW       0.043700
     30 H7          -2.5760     0.0380    -0.2890 hc         1 1MW       0.043700
     31 H8          -3.3360     2.2300     1.7580 hc         1 1MW       0.052700
     32 H9          -4.2310     1.8230     0.2350 hc         1 1MW       0.052700
     33 H10         -3.6540    -0.3090     2.4060 hx         1 1MW       0.096700
     34 H11         -4.8830    -0.3760     1.0580 hx         1 1MW       0.096700
     35 H12         -6.2330     1.1100     2.2200 hn         1 1MW       0.464800
     36 H13         -3.5980    -2.0370     4.8150 ha         1 1MW       0.175000
     37 H14         -1.7090    -1.0900     6.4270 h4         1 1MW       0.259000
     38 HAP2        -5.0480     1.6860     3.2010 hn         1 1MW       0.464800
@<TRIPOS>BOND
     1     1     2 ar  
     2     1     9 ar  
     3     1    25 1   
     4     2     3 ar  
     5     2    26 1   
     6     3     4 1   
     7     3     7 ar  
     8     4     5 1   
     9     4     6 1   
    10     7     8 ar  
    11     7    27 1   
    12     8     9 ar  
    13     8    28 1   
    14     9    10 1   
    15    10    11 1   
    16    10    29 1   
    17    10    30 1   
    18    11    12 1   
    19    11    31 1   
    20    11    32 1   
    21    12    13 1   
    22    12    33 1   
    23    12    34 1   
    24    13    14 1   
    25    13    35 1   
    26    13    38 1   
    27    14    15 2   
    28    14    16 2   
    29    14    17 1   
    30    17    18 1   
    31    17    21 2   
    32    18    19 2   
    33    18    36 1   
    34    19    20 1   
    35    19    37 1   
    36    20    21 1   
    37    21    22 1   
    38    22    23 1   
    39    22    24 1   
@<TRIPOS>SUBSTRUCTURE
     1 1MW         1 TEMP              0 ****  ****    0 ROOT
