@<TRIPOS>MOLECULE
1MX
   46    48     1     0     0
SMALL
bcc


@<TRIPOS>ATOM
      1 C           -0.6740    -0.9030    -0.2380 cc         1 1MX       0.607800
      2 N           -1.6820    -0.5010    -1.2810 nz         1 1MX      -0.809600
      3 O            2.1970    -2.9590    -0.0850 o          1 1MX      -0.403500
      4 C1           1.3220    -2.1990     0.3050 c          1 1MX       0.605000
      5 N1           0.3310    -1.7730    -0.6330 ns         1 1MX      -0.497400
      6 O1           1.3860    -0.5560     6.4940 o          1 1MX      -0.376100
      7 C2           1.1650    -1.6500     1.6890 ca         1 1MX       0.305500
      8 N2          -0.8560    -0.3770     0.9660 nd         1 1MX      -0.653700
      9 O2           0.5090     3.4650     7.0320 o          1 1MX      -0.598100
     10 C3           0.0670    -0.7420     1.9720 ca         1 1MX       0.533000
     11 N3          -0.0940    -0.2290     3.2300 nb         1 1MX      -0.600000
     12 C4           0.8060    -0.6210     4.1600 ca         1 1MX       0.229500
     13 N4           2.0540    -2.0200     2.6350 nb         1 1MX      -0.512000
     14 C5           1.8840    -1.5170     3.8700 ca         1 1MX       0.400900
     15 N5          -0.2910     0.9490     5.8870 ny         1 1MX      -0.674800
     16 C6           0.7090    -0.1500     5.5640 c          1 1MX       0.472600
     17 N6          -0.8560     2.8560     8.8250 ny         1 1MX      -0.687800
     18 C7          -0.8390     0.8180     7.2710 c3         1 1MX       0.091800
     19 N7           0.7120     4.7830     8.9770 ns         1 1MX      -0.343100
     20 C8          -1.5810     2.0590     7.7950 c3         1 1MX       0.103800
     21 C9           0.2550     3.7720     8.2100 c          1 1MX       0.648100
     22 C10          1.8120     5.6120     8.5830 ca         1 1MX      -0.051400
     23 C11          1.9700     6.0420     7.2530 ca         1 1MX      -0.111000
     24 C12          3.0080     6.9170     6.9400 ca         1 1MX      -0.098000
     25 C13          3.8880     7.3580     7.9300 ca         1 1MX      -0.067000
     26 C14          3.7340     6.9190     9.2470 ca         1 1MX      -0.098000
     27 C15          2.7070     6.0430     9.5870 ca         1 1MX      -0.111000
     28 HN          -1.2040    -0.0280    -2.0640 hn         1 1MX       0.502133
     29 HNA         -2.1750    -1.3380    -1.6290 hn         1 1MX       0.502133
     30 HN1          0.4080    -2.1340    -1.5680 hn         1 1MX       0.384500
     31 H5           2.6190    -1.8360     4.6440 h4         1 1MX       0.109100
     32 HN5          0.2040     1.8550     5.7880 hn         1 1MX       0.491300
     33 HN6         -0.4140     2.2300     9.5090 hn         1 1MX       0.474300
     34 H7          -1.5730    -0.0460     7.2570 hx         1 1MX       0.142700
     35 H7A          0.0130     0.5250     7.9580 hx         1 1MX       0.142700
     36 HN7          0.4210     4.8900     9.9320 hn         1 1MX       0.366500
     37 H8          -2.5390     1.6920     8.2840 hx         1 1MX       0.141700
     38 H8A         -1.8670     2.7640     6.9570 hx         1 1MX       0.141700
     39 H11          1.2850     5.7030     6.4610 ha         1 1MX       0.149000
     40 H12          3.1270     7.2690     5.9020 ha         1 1MX       0.175000
     41 H13          4.7040     8.0570     7.6740 ha         1 1MX       0.181000
     42 H14          4.4300     7.2680    10.0310 ha         1 1MX       0.175000
     43 H15          2.6030     5.7150    10.6330 ha         1 1MX       0.149000
     44 HN3         -2.3770     0.1490    -0.8730 hn         1 1MX       0.502133
     45 H52         -1.0650     0.9350     5.2100 hn         1 1MX       0.491300
     46 H62         -1.5520     3.4330     9.3190 hn         1 1MX       0.474300
@<TRIPOS>BOND
     1     1     2 1   
     2     1     5 1   
     3     1     8 2   
     4     2    28 1   
     5     2    29 1   
     6     2    44 1   
     7     3     4 2   
     8     4     5 1   
     9     4     7 1   
    10     5    30 1   
    11     6    16 2   
    12     7    10 ar  
    13     7    13 ar  
    14     8    10 1   
    15     9    21 2   
    16    10    11 ar  
    17    11    12 ar  
    18    12    14 ar  
    19    12    16 1   
    20    13    14 ar  
    21    14    31 1   
    22    15    16 1   
    23    15    18 1   
    24    15    32 1   
    25    15    45 1   
    26    17    20 1   
    27    17    21 1   
    28    17    33 1   
    29    17    46 1   
    30    18    20 1   
    31    18    34 1   
    32    18    35 1   
    33    19    21 1   
    34    19    22 1   
    35    19    36 1   
    36    20    37 1   
    37    20    38 1   
    38    22    23 ar  
    39    22    27 ar  
    40    23    24 ar  
    41    23    39 1   
    42    24    25 ar  
    43    24    40 1   
    44    25    26 ar  
    45    25    41 1   
    46    26    27 ar  
    47    26    42 1   
    48    27    43 1   
@<TRIPOS>SUBSTRUCTURE
     1 1MX         1 TEMP              0 ****  ****    0 ROOT
