@<TRIPOS>MOLECULE
molecule
   44    46     1     0     0
SMALL
bcc


@<TRIPOS>ATOM
      1 C            0.0000     0.0000     0.0000 cc         1 1MX       0.501800
      2 N           -0.6530     0.0000    -1.2050 nz         1 1MX      -0.740600
      3 O            3.2660     0.0010     1.1830 o          1 1MX      -0.487500
      4 C1           2.0500     0.0000     1.1660 c          1 1MX       0.603000
      5 N1           1.3630     0.0000     0.0000 ns         1 1MX      -0.482400
      6 O1          -0.5520    -0.0070     6.9350 o          1 1MX      -0.564100
      7 C2           1.2670    -0.0010     2.4160 ca         1 1MX       0.259500
      8 N2          -0.7160     0.0040     1.0970 nd         1 1MX      -0.626700
      9 O2          -7.4300     0.0150     6.6830 o          1 1MX      -0.647100
     10 C3          -0.1460     0.0040     2.3160 ca         1 1MX       0.510000
     11 N3          -0.8810     0.0030     3.4270 nb         1 1MX      -0.600000
     12 C4          -0.2800    -0.0020     4.6090 ca         1 1MX       0.325500
     13 N4           1.8530    -0.0050     3.6050 nb         1 1MX      -0.588000
     14 C5           1.1160    -0.0060     4.6980 ca         1 1MX       0.393900
     15 N5          -2.4420     0.0020     5.7690 ns         1 1MX      -0.552900
     16 C6          -1.0970    -0.0030     5.8490 c          1 1MX       0.564600
     17 N6          -5.5390     0.0050     7.8490 ns         1 1MX      -0.605900
     18 C7          -3.2480     0.0010     6.9940 c3         1 1MX       0.089000
     19 N7          -7.6260     0.0090     8.8950 ns         1 1MX      -0.486100
     20 C8          -4.7330     0.0070     6.6260 c3         1 1MX       0.117000
     21 C9          -6.8850     0.0110     7.7700 c          1 1MX       0.788100
     22 C10         -9.0190     0.1110     8.8160 ca         1 1MX       0.061600
     23 C11         -9.7010    -0.4830     7.7630 ca         1 1MX      -0.142500
     24 C12        -11.0770    -0.3820     7.6870 ca         1 1MX      -0.111500
     25 C13        -11.7740     0.3130     8.6580 ca         1 1MX      -0.139000
     26 C14        -11.0970     0.9070     9.7080 ca         1 1MX      -0.111500
     27 C15         -9.7240     0.8040     9.7920 ca         1 1MX      -0.142500
     28 HN          -0.3990     0.8180    -1.7220 hn         1 1MX       0.484133
     29 HNA         -0.3960    -0.8160    -1.7240 hn         1 1MX       0.484133
     30 HN1          1.8600    -0.0000    -0.8690 hn         1 1MX       0.352500
     31 H5           1.8060    -0.0080     5.5330 h4         1 1MX       0.095100
     32 HN5         -2.8900     0.0480     4.8750 hn         1 1MX       0.336500
     33 HN6         -5.0900     0.0010     8.7440 hn         1 1MX       0.314500
     34 H7          -3.0230    -0.8860     7.5730 h1         1 1MX       0.066700
     35 H7A         -3.0180     0.8830     7.5790 h1         1 1MX       0.066700
     36 HN7         -7.1820    -0.0970     9.7860 hn         1 1MX       0.320500
     37 H8          -4.9640    -0.8750     6.0400 h1         1 1MX       0.057700
     38 H8A         -4.9590     0.8940     6.0460 h1         1 1MX       0.057700
     39 H11         -9.1550    -1.0280     7.0020 ha         1 1MX       0.146000
     40 H12        -11.6090    -0.8460     6.8660 ha         1 1MX       0.134500
     41 H13        -12.8530     0.3940     8.5960 ha         1 1MX       0.133000
     42 H14        -11.6470     1.4490    10.4680 ha         1 1MX       0.134500
     43 H15         -9.1950     1.2690    10.6150 ha         1 1MX       0.146000
     44 HN3         -1.6420     0.0020    -1.0480 hn         1 1MX       0.484133
@<TRIPOS>BOND
     1     1     2 1
     2     1     5 1
     3     1     8 2
     4     3     4 2
     5     4     5 1
     6     4     7 1
     7     6    16 2
     8     7    10 ar
     9     7    13 ar
    10     8    10 1
    11     9    21 2
    12    10    11 ar
    13    11    12 ar
    14    12    14 ar
    15    12    16 1
    16    13    14 ar
    17    15    16 1
    18    15    18 1
    19    17    20 1
    20    17    21 1
    21    18    20 1
    22    19    21 1
    23    19    22 1
    24    22    23 ar
    25    22    27 ar
    26    23    24 ar
    27    24    25 ar
    28    25    26 ar
    29    26    27 ar
    30     2    28 1
    31     2    29 1
    32     5    30 1
    33    14    31 1
    34    15    32 1
    35    17    33 1
    36    18    34 1
    37    18    35 1
    38    19    36 1
    39    20    37 1
    40    20    38 1
    41    23    39 1
    42    24    40 1
    43    25    41 1
    44    26    42 1
    45    27    43 1
    46    44     2 1
@<TRIPOS>SUBSTRUCTURE
     1 1MX         1 TEMP              0 ****  ****    0 ROOT
