@<TRIPOS>MOLECULE
1MY
   52    54     1     0     0
SMALL
bcc


@<TRIPOS>ATOM
      1 C20          0.0380    -0.5320     0.1050 ca         1 1MY      -0.079000
      2 C19          1.4350    -0.5000     0.0500 ca         1 1MY       0.016400
      3 Cl2          2.2410    -1.2080    -1.2720 cl         1 1MY      -0.105400
      4 C18          2.1810     0.1040     1.0650 ca         1 1MY      -0.131000
      5 C17          1.5170     0.6780     2.1480 ca         1 1MY      -0.131000
      6 C16          0.1260     0.6560     2.2140 ca         1 1MY      -0.131000
      7 C10         -0.6190     0.0600     1.1880 ca         1 1MY      -0.060300
      8 C6          -2.1110     0.0210     1.3060 c3         1 1MY       0.175400
      9 O1          -2.6600    -0.7140     0.2180 os         1 1MY      -0.394600
     10 C7          -4.0460    -1.0120     0.4040 c3         1 1MY       0.084100
     11 C21         -4.2660    -2.1960     1.3270 c3         1 1MY      -0.232400
     12 C22         -4.1920    -3.5360     0.5530 c          1 1MY       0.922600
     13 O5          -3.9260    -4.5660     1.2300 o          1 1MY      -0.834300
     14 O4          -4.4210    -3.5210    -0.6890 o          1 1MY      -0.834300
     15 C8          -4.8540     0.1990     0.8790 c          1 1MY       0.671500
     16 O2          -6.1000     0.1470     0.9160 o          1 1MY      -0.646500
     17 N1          -4.2020     1.3550     1.3150 n          1 1MY      -0.491800
     18 C1          -4.9290     2.5250     1.7810 c3         1 1MY       0.088700
     19 C3          -5.9740     3.0790     0.7990 c3         1 1MY      -0.097400
     20 C4          -5.3500     3.7350    -0.4030 c3         1 1MY      -0.092100
     21 C2          -5.6420     2.2690     3.1310 c3         1 1MY       0.109400
     22 O3          -4.7170     2.0210     4.1710 oh         1 1MY      -0.612800
     23 C5          -2.7520     1.4440     1.3240 c3         1 1MY       0.137000
     24 C9          -2.2050     2.3170     0.2160 ca         1 1MY      -0.089300
     25 C11         -1.5680     3.5210     0.5380 ca         1 1MY      -0.101500
     26 C12         -1.0520     4.3390    -0.4640 ca         1 1MY      -0.132000
     27 C13         -1.1830     3.9530    -1.8010 ca         1 1MY       0.018400
     28 Cl1         -0.5560     4.9530    -3.0310 cl         1 1MY      -0.118400
     29 C14         -1.8220     2.7560    -2.1370 ca         1 1MY      -0.132000
     30 C15         -2.3330     1.9440    -1.1270 ca         1 1MY      -0.101500
     31 H1          -0.5510    -1.0280    -0.6860 ha         1 1MY       0.185000
     32 H2           3.2790     0.1230     1.0150 ha         1 1MY       0.137000
     33 H3           2.0970     1.1480     2.9560 ha         1 1MY       0.127000
     34 H4          -0.3890     1.1030     3.0770 ha         1 1MY       0.129000
     35 H5          -2.3720    -0.4900     2.2810 h1         1 1MY       0.066700
     36 H6          -4.3890    -1.3020    -0.6410 h1         1 1MY       0.156700
     37 H7          -3.5090    -2.2150     2.1480 hc         1 1MY       0.047200
     38 H8          -5.2880    -2.1350     1.7790 hc         1 1MY       0.047200
     39 H10         -4.1640     3.3420     1.9570 h1         1 1MY       0.052700
     40 H11         -6.5910     3.8370     1.3510 hc         1 1MY       0.058200
     41 H12         -6.6660     2.2570     0.4730 hc         1 1MY       0.058200
     42 H13         -6.1450     4.0760    -1.1100 hc         1 1MY       0.032700
     43 H14         -4.6790     3.0230    -0.9430 hc         1 1MY       0.032700
     44 H15         -4.7430     4.6240    -0.1010 hc         1 1MY       0.032700
     45 H16         -6.3740     1.4250     3.0310 h1         1 1MY       0.058700
     46 H17         -6.1760     3.2040     3.4500 h1         1 1MY       0.058700
     47 H18         -4.3320     1.1510     4.0100 ho         1 1MY       0.405000
     48 H19         -2.4500     1.9140     2.3140 h1         1 1MY       0.050700
     49 H20         -1.4680     3.8270     1.5910 ha         1 1MY       0.151500
     50 H21         -0.5470     5.2800    -0.2030 ha         1 1MY       0.142500
     51 H22         -1.9200     2.4510    -3.1900 ha         1 1MY       0.142500
     52 H23         -2.8260     0.9880    -1.3780 ha         1 1MY       0.151500
@<TRIPOS>BOND
     1     1     2 ar  
     2     1     7 ar  
     3     1    31 1   
     4     2     3 1   
     5     2     4 ar  
     6     4     5 ar  
     7     4    32 1   
     8     5     6 ar  
     9     5    33 1   
    10     6     7 ar  
    11     6    34 1   
    12     7     8 1   
    13     8     9 1   
    14     8    23 1   
    15     8    35 1   
    16     9    10 1   
    17    10    11 1   
    18    10    15 1   
    19    10    36 1   
    20    11    12 1   
    21    11    37 1   
    22    11    38 1   
    23    12    13 1   
    24    12    14 1   
    25    15    16 2   
    26    15    17 1   
    27    17    18 1   
    28    17    23 1   
    29    18    19 1   
    30    18    21 1   
    31    18    39 1   
    32    19    20 1   
    33    19    40 1   
    34    19    41 1   
    35    20    42 1   
    36    20    43 1   
    37    20    44 1   
    38    21    22 1   
    39    21    45 1   
    40    21    46 1   
    41    22    47 1   
    42    23    24 1   
    43    23    48 1   
    44    24    25 ar  
    45    24    30 ar  
    46    25    26 ar  
    47    25    49 1   
    48    26    27 ar  
    49    26    50 1   
    50    27    28 1   
    51    27    29 ar  
    52    29    30 ar  
    53    29    51 1   
    54    30    52 1   
@<TRIPOS>SUBSTRUCTURE
     1 1MY         1 TEMP              0 ****  ****    0 ROOT
