@<TRIPOS>MOLECULE
molecule
   52    54     1     0     0
SMALL
bcc


@<TRIPOS>ATOM
      1 C20          0.0000     0.0000     0.0000 ca         1 1MY      -0.107000
      2 C19          1.3840     0.0000     0.0000 ca         1 1MY       0.020400
      3 Cl2          2.2520    -0.0010    -1.5020 cl         1 1MY      -0.133400
      4 C18          2.0750     0.0000     1.1990 ca         1 1MY      -0.126000
      5 C17          1.3830     0.0020     2.3950 ca         1 1MY      -0.130000
      6 C16          0.0000     0.0020     2.3950 ca         1 1MY      -0.078000
      7 C10         -0.6900     0.0020     1.1970 ca         1 1MY      -0.057300
      8 C6          -2.1970     0.0080     1.1980 c3         1 1MY       0.177400
      9 O1          -2.6740     0.8610     2.2450 os         1 1MY      -0.371600
     10 C7          -4.0880     1.0680     2.1970 c3         1 1MY       0.099100
     11 C21         -4.4340     1.9440     0.9920 c3         1 1MY      -0.209400
     12 C22         -3.8360     3.3140     1.1790 c          1 1MY       0.892600
     13 O5          -4.0100     4.2580     0.2400 o          1 1MY      -0.838800
     14 O4          -3.1990     3.5650     2.1750 o          1 1MY      -0.838800
     15 C8          -4.7930    -0.2540     2.0720 c          1 1MY       0.664500
     16 O2          -5.9810    -0.3090     2.3070 o          1 1MY      -0.669500
     17 N1          -4.1540    -1.3740     1.7090 n          1 1MY      -0.476800
     18 C1          -4.9260    -2.6110     1.5710 c3         1 1MY       0.096700
     19 C3          -4.9360    -3.0450     0.1030 c3         1 1MY      -0.096400
     20 C4          -5.6860    -2.0060    -0.7300 c3         1 1MY      -0.093100
     21 C2          -4.2860    -3.7100     2.4230 c3         1 1MY       0.117400
     22 O3          -3.0160    -4.0620     1.8700 oh         1 1MY      -0.604800
     23 C5          -2.7170    -1.4090     1.4460 c3         1 1MY       0.140000
     24 C9          -2.0050    -2.0020     2.6340 ca         1 1MY      -0.054300
     25 C11         -0.8990    -2.8090     2.4450 ca         1 1MY      -0.091500
     26 C12         -0.2440    -3.3540     3.5340 ca         1 1MY      -0.135500
     27 C13         -0.6980    -3.0910     4.8150 ca         1 1MY       0.019400
     28 Cl1          0.1220    -3.7740     6.1840 cl         1 1MY      -0.140400
     29 C14         -1.8060    -2.2840     5.0040 ca         1 1MY      -0.135500
     30 C15         -2.4560    -1.7360     3.9140 ca         1 1MY      -0.091500
     31 H1          -0.5420    -0.0000    -0.9380 ha         1 1MY       0.144000
     32 H2           3.1580    -0.0000     1.2000 ha         1 1MY       0.131000
     33 H3           1.9240     0.0020     3.3340 ha         1 1MY       0.132000
     34 H4          -0.5420     0.0030     3.3330 ha         1 1MY       0.159000
     35 H5          -2.5650     0.3660     0.2440 h1         1 1MY       0.072700
     36 H6          -4.4090     1.5580     3.1080 h1         1 1MY       0.126700
     37 H7          -4.0320     1.4950     0.0920 hc         1 1MY       0.046200
     38 H8          -5.5100     2.0290     0.9040 hc         1 1MY       0.046200
     39 H10         -5.9420    -2.4420     1.9040 h1         1 1MY       0.099700
     40 H11         -3.9180    -3.1300    -0.2560 hc         1 1MY       0.040700
     41 H12         -5.4310    -4.0050     0.0140 hc         1 1MY       0.040700
     42 H13         -6.5050    -1.5990    -0.1490 hc         1 1MY       0.039367
     43 H14         -5.0090    -1.2070    -1.0070 hc         1 1MY       0.039367
     44 H15         -6.0770    -2.4740    -1.6260 hc         1 1MY       0.039367
     45 H16         -4.1520    -3.3500     3.4360 h1         1 1MY       0.037200
     46 H17         -4.9290    -4.5810     2.4320 h1         1 1MY       0.037200
     47 H18         -2.9490    -5.0000     1.8080 ho         1 1MY       0.389000
     48 H19         -2.5300    -2.0170     0.5690 h1         1 1MY       0.072700
     49 H20         -0.5440    -3.0140     1.4420 ha         1 1MY       0.144500
     50 H21          0.6230    -3.9860     3.3860 ha         1 1MY       0.135500
     51 H22         -2.1610    -2.0770     6.0060 ha         1 1MY       0.135500
     52 H23         -3.3230    -1.1040     4.0620 ha         1 1MY       0.144500
@<TRIPOS>BOND
     1    14    12 1
     2    13    12 1
     3    12    11 1
     4     3     2 1
     5    11    10 1
     6     2     1 ar
     7     2     4 ar
     8     9    10 1
     9     9     8 1
    10     1     7 ar
    11    10    15 1
    12     4     5 ar
    13     7     8 1
    14     7     6 ar
    15     5     6 ar
    16     8    23 1
    17    30    29 ar
    18    30    24 ar
    19    29    27 ar
    20    15    16 2
    21    15    17 1
    22    23    24 1
    23    23    17 1
    24    24    25 ar
    25    27    28 1
    26    27    26 ar
    27    17    18 1
    28    25    26 ar
    29    20    19 1
    30    18    19 1
    31    18    21 1
    32    22    21 1
    33     1    31 1
    34     4    32 1
    35     5    33 1
    36     6    34 1
    37     8    35 1
    38    10    36 1
    39    11    37 1
    40    11    38 1
    41    18    39 1
    42    19    40 1
    43    19    41 1
    44    20    42 1
    45    20    43 1
    46    20    44 1
    47    21    45 1
    48    21    46 1
    49    22    47 1
    50    23    48 1
    51    25    49 1
    52    26    50 1
    53    29    51 1
    54    30    52 1
@<TRIPOS>SUBSTRUCTURE
     1 1MY         1 TEMP              0 ****  ****    0 ROOT
