@<TRIPOS>MOLECULE
1MY
   52    54     1     0     0
SMALL
bcc


@<TRIPOS>ATOM
      1 C20          0.0000     0.0000     0.0000 ca         1 1MY      -0.086000
      2 C19          1.3840     0.0000     0.0000 ca         1 1MY      -0.034600
      3 Cl2          2.2520    -0.0010    -1.5020 cl         1 1MY      -0.057400
      4 C18          2.0750     0.0000     1.1990 ca         1 1MY      -0.108000
      5 C17          1.3830     0.0020     2.3950 ca         1 1MY      -0.100000
      6 C16          0.0000     0.0020     2.3950 ca         1 1MY      -0.063000
      7 C10         -0.6900     0.0020     1.1970 ca         1 1MY      -0.061300
      8 C6          -2.1970     0.0080     1.1980 c3         1 1MY       0.208400
      9 O1          -2.6740     0.8610     2.2450 os         1 1MY      -0.355600
     10 C7          -4.0880     1.0680     2.1970 c3         1 1MY       0.135100
     11 C21         -4.4340     1.9440     0.9920 c3         1 1MY      -0.166400
     12 C22         -3.8360     3.3140     1.1790 c          1 1MY       0.980600
     13 O5          -4.0100     4.2580     0.2400 o          1 1MY      -0.890300
     14 O4          -3.1990     3.5650     2.1750 o          1 1MY      -0.890300
     15 C8          -4.7930    -0.2540     2.0720 c          1 1MY       0.589500
     16 O2          -5.9810    -0.3090     2.3070 o          1 1MY      -0.706500
     17 N1          -4.1540    -1.3740     1.7090 n          1 1MY      -0.128800
     18 C1          -4.9260    -2.6110     1.5710 c3         1 1MY      -0.007300
     19 C3          -4.9360    -3.0450     0.1030 c3         1 1MY      -0.046400
     20 C4          -5.6860    -2.0060    -0.7300 c3         1 1MY      -0.006100
     21 C2          -4.2860    -3.7100     2.4230 c3         1 1MY       0.188400
     22 O3          -3.0160    -4.0620     1.8700 oh         1 1MY      -0.586800
     23 C5          -2.7170    -1.4090     1.4460 c3         1 1MY       0.050000
     24 C9          -2.0050    -2.0020     2.6340 ca         1 1MY      -0.061300
     25 C11         -0.8990    -2.8090     2.4450 ca         1 1MY      -0.070500
     26 C12         -0.2440    -3.3540     3.5340 ca         1 1MY      -0.110500
     27 C13         -0.6980    -3.0910     4.8150 ca         1 1MY      -0.036600
     28 Cl1          0.1220    -3.7740     6.1840 cl         1 1MY      -0.061400
     29 C14         -1.8060    -2.2840     5.0040 ca         1 1MY      -0.110500
     30 C15         -2.4560    -1.7360     3.9140 ca         1 1MY      -0.070500
     31 H1          -0.5420    -0.0000    -0.9380 ha         1 1MY       0.116000
     32 H2           3.1580    -0.0000     1.2000 ha         1 1MY       0.104000
     33 H3           1.9240     0.0020     3.3340 ha         1 1MY       0.102000
     34 H4          -0.5420     0.0030     3.3330 ha         1 1MY       0.132000
     35 H5          -2.5650     0.3660     0.2440 h1         1 1MY       0.044700
     36 H6          -4.4090     1.5580     3.1080 h1         1 1MY       0.082700
     37 H7          -4.0320     1.4950     0.0920 hc         1 1MY       0.022200
     38 H8          -5.5100     2.0290     0.9040 hc         1 1MY       0.022200
     39 H10         -5.9420    -2.4420     1.9040 h1         1 1MY       0.080700
     40 H11         -3.9180    -3.1300    -0.2560 hc         1 1MY       0.016700
     41 H12         -5.4310    -4.0050     0.0140 hc         1 1MY       0.016700
     42 H13         -6.5050    -1.5990    -0.1490 hc         1 1MY       0.009367
     43 H14         -5.0090    -1.2070    -1.0070 hc         1 1MY       0.009367
     44 H15         -6.0770    -2.4740    -1.6260 hc         1 1MY       0.009367
     45 H16         -4.1520    -3.3500     3.4360 h1         1 1MY       0.004200
     46 H17         -4.9290    -4.5810     2.4320 h1         1 1MY       0.004200
     47 H18         -2.9490    -5.0000     1.8080 ho         1 1MY       0.378000
     48 H19         -2.5300    -2.0170     0.5690 h1         1 1MY       0.051700
     49 H20         -0.5440    -3.0140     1.4420 ha         1 1MY       0.119000
     50 H21          0.6230    -3.9860     3.3860 ha         1 1MY       0.109500
     51 H22         -2.1610    -2.0770     6.0060 ha         1 1MY       0.109500
     52 H23         -3.3230    -1.1040     4.0620 ha         1 1MY       0.119000
@<TRIPOS>BOND
     1     1     2 ar  
     2     1     7 ar  
     3     1    31 1   
     4     2     3 1   
     5     2     4 ar  
     6     4     5 ar  
     7     4    32 1   
     8     5     6 ar  
     9     5    33 1   
    10     6     7 ar  
    11     6    34 1   
    12     7     8 1   
    13     8     9 1   
    14     8    23 1   
    15     8    35 1   
    16     9    10 1   
    17    10    11 1   
    18    10    15 1   
    19    10    36 1   
    20    11    12 1   
    21    11    37 1   
    22    11    38 1   
    23    12    13 1   
    24    12    14 1   
    25    15    16 2   
    26    15    17 1   
    27    17    18 1   
    28    17    23 1   
    29    18    19 1   
    30    18    21 1   
    31    18    39 1   
    32    19    20 1   
    33    19    40 1   
    34    19    41 1   
    35    20    42 1   
    36    20    43 1   
    37    20    44 1   
    38    21    22 1   
    39    21    45 1   
    40    21    46 1   
    41    22    47 1   
    42    23    24 1   
    43    23    48 1   
    44    24    25 ar  
    45    24    30 ar  
    46    25    26 ar  
    47    25    49 1   
    48    26    27 ar  
    49    26    50 1   
    50    27    28 1   
    51    27    29 ar  
    52    29    30 ar  
    53    29    51 1   
    54    30    52 1   
@<TRIPOS>SUBSTRUCTURE
     1 1MY         1 TEMP              0 ****  ****    0 ROOT
