@<TRIPOS>MOLECULE
molecule
   13    13     1     0     0
SMALL
bcc


@<TRIPOS>ATOM
      1 N1           0.0000     0.0000     0.0000 na         1 1MZ      -0.007100
      2 C2           1.3500     0.0000     0.0000 cc         1 1MZ      -0.041600
      3 N3           1.7680     0.0000     1.2360 na         1 1MZ      -0.080100
      4 C4           0.7100    -0.0090     2.0610 cc         1 1MZ      -0.142300
      5 C5          -0.4050    -0.0100     1.3070 cd         1 1MZ      -0.115300
      6 CM1         -0.8700     0.0030    -1.1790 c3         1 1MZ       0.018600
      7 H2           1.9810     0.0070    -0.8800 h5         1 1MZ       0.253000
      8 HN3          2.7270     0.0010     1.5230 hn         1 1MZ       0.363700
      9 H4           0.7470    -0.0140     3.1440 h4         1 1MZ       0.234000
     10 H5          -1.4270    -0.0140     1.6660 h4         1 1MZ       0.235000
     11 HM11        -0.7160    -0.9080    -1.7440 h1         1 1MZ       0.093700
     12 HM12        -1.9050     0.0630    -0.8640 h1         1 1MZ       0.093700
     13 HM13        -0.6320     0.8580    -1.8010 h1         1 1MZ       0.093700
@<TRIPOS>BOND
     1     1     2 2
     2     1     5 1
     3     1     6 1
     4     2     3 1
     5     2     7 1
     6     3     4 1
     7     3     8 1
     8     4     5 2
     9     4     9 1
    10     5    10 1
    11     6    11 1
    12     6    12 1
    13     6    13 1
@<TRIPOS>SUBSTRUCTURE
     1 1MZ         1 TEMP              0 ****  ****    0 ROOT
