@<TRIPOS>MOLECULE
1MZ
   13    13     1     0     0
SMALL
bcc


@<TRIPOS>ATOM
      1 N1          -0.0300     0.0870    -0.0350 na         1 1MZ      -0.012100
      2 C2           2.2230    -0.0960     0.0140 cc         1 1MZ      -0.105300
      3 N3           1.7320    -0.0490     1.3260 na         1 1MZ      -0.136100
      4 C4           0.3630     0.0610     1.2820 cc         1 1MZ      -0.022600
      5 C5           1.1170    -0.0100    -0.8430 cd         1 1MZ      -0.118300
      6 CM1         -1.3830     0.1950    -0.5150 c3         1 1MZ      -0.007400
      7 H2           3.2910    -0.1830    -0.2150 h4         1 1MZ       0.239000
      8 HN3          2.2830    -0.0900     2.1560 hn         1 1MZ       0.363700
      9 H4          -0.3070     0.1200     2.1580 h5         1 1MZ       0.262000
     10 H5           1.0660    -0.0120    -1.9370 h4         1 1MZ       0.238000
     11 HM11        -2.0940     0.2400     0.3520 h1         1 1MZ       0.099700
     12 HM12        -1.4820     1.1290    -1.1330 h1         1 1MZ       0.099700
     13 HM13        -1.6220    -0.7020    -1.1510 h1         1 1MZ       0.099700
@<TRIPOS>BOND
     1     1     4 2   
     2     1     5 1   
     3     1     6 1   
     4     2     3 1   
     5     2     5 2   
     6     2     7 1   
     7     3     4 1   
     8     3     8 1   
     9     4     9 1   
    10     5    10 1   
    11     6    11 1   
    12     6    12 1   
    13     6    13 1   
@<TRIPOS>SUBSTRUCTURE
     1 1MZ         1 TEMP              0 ****  ****    0 ROOT
