@<TRIPOS>MOLECULE
1MZ
   13    13     1     0     0
SMALL
bcc


@<TRIPOS>ATOM
      1 N1         -0.0120    0.0010   -0.0210 na        1 1MZ     -0.012100
      2 C2          1.3610    0.0600   -0.0370 cc        1 1MZ     -0.022600
      3 N3          1.8140    0.0330    1.2610 na        1 1MZ     -0.136100
      4 C4          0.7100   -0.0450    2.1210 cc        1 1MZ     -0.105300
      5 C5         -0.4380   -0.0660    1.3170 cd        1 1MZ     -0.118300
      6 CM1        -0.8750    0.0030   -1.1720 c3        1 1MZ     -0.007400
      7 H2          1.9950    0.1200   -0.9400 h5        1 1MZ      0.262000
      8 HN3         2.7700    0.0640    1.5400 hn        1 1MZ      0.363700
      9 H4          0.8120   -0.0800    3.2120 h4        1 1MZ      0.239000
     10 H5         -1.4960   -0.1210    1.5950 h4        1 1MZ      0.238000
     11 HM11       -1.4630   -0.9560   -1.1960 h1        1 1MZ      0.099700
     12 HM12       -1.5830    0.8750   -1.1020 h1        1 1MZ      0.099700
     13 HM13       -0.2630    0.0910   -2.1090 h1        1 1MZ      0.099700
@<TRIPOS>BOND
     1    1    2 2   
     2    1    5 1   
     3    1    6 1   
     4    2    3 1   
     5    2    7 1   
     6    3    4 1   
     7    3    8 1   
     8    4    5 2   
     9    4    9 1   
    10    5   10 1   
    11    6   11 1   
    12    6   12 1   
    13    6   13 1   
@<TRIPOS>SUBSTRUCTURE
     1 1MZ         1 TEMP              0 ****  ****    0 ROOT
