@<TRIPOS>MOLECULE
1N
   85    88     1     0     0
SMALL
bcc


@<TRIPOS>ATOM
      1 N13          1.3180     1.7520     0.3200 nz         1 1N       -0.813600
      2 C28          1.7540     0.3290     0.5200 c2         1 1N        0.614100
      3 N12          1.2380    -0.3080     1.4930 n2         1 1N       -0.593100
      4 N11          2.7750    -0.1500    -0.4830 ny         1 1N       -0.786000
      5 C18          2.1900    -0.3770    -1.8780 c3         1 1N        0.122500
      6 C10          2.7330     0.6680    -2.8920 c3         1 1N        0.142100
      7 C9           2.0480     0.4340    -4.2280 c3         1 1N       -0.131400
      8 O2           2.4040     1.9380    -2.3010 os         1 1N       -0.455900
      9 C11          2.8180     3.0880    -2.9820 ca         1 1N        0.026100
     10 C17          4.0860     3.6250    -2.7270 ca         1 1N       -0.102500
     11 C16          4.4130     4.8850    -3.2230 ca         1 1N       -0.118500
     12 C14          3.4800     5.6180    -3.9880 ca         1 1N        0.158600
     13 C13          2.2280     5.0260    -4.2880 ca         1 1N       -0.118500
     14 C12          1.8980     3.7720    -3.7860 ca         1 1N       -0.102500
     15 N4           3.7030     6.9660    -4.3680 nu         1 1N       -0.687600
     16 C15          4.9910     7.3890    -4.8190 c2         1 1N        0.724100
     17 N6           5.8790     6.6400    -5.3490 n2         1 1N       -0.706100
     18 N5           5.1850     8.8990    -4.5600 nz         1 1N       -0.876600
     19 C19          2.5130    -1.7830    -2.3810 c3         1 1N       -0.132400
     20 C20          1.7810    -2.0360    -3.7290 c3         1 1N        0.218500
     21 N7           2.0040    -3.3970    -4.1560 nu         1 1N       -0.731600
     22 C21          1.0190    -4.3870    -3.9530 ca         1 1N        0.141600
     23 C27          1.0540    -5.5590    -4.7500 ca         1 1N       -0.157500
     24 C26          0.1720    -6.6060    -4.5270 ca         1 1N       -0.079500
     25 C24         -0.7960    -6.5240    -3.5050 ca         1 1N        0.073600
     26 C23         -0.8320    -5.3660    -2.7040 ca         1 1N       -0.079500
     27 C22          0.0540    -4.3170    -2.9290 ca         1 1N       -0.157500
     28 N8          -1.7830    -7.5450    -3.3550 nu         1 1N       -0.661600
     29 C25         -1.3230    -8.8620    -3.0220 c2         1 1N        0.709100
     30 N10         -0.2230    -9.1580    -2.4460 n2         1 1N       -0.705100
     31 N9          -2.3410    -9.9190    -3.5140 nz         1 1N       -0.878600
     32 C8           2.3030    -0.9810    -4.7540 c3         1 1N        0.129100
     33 O1           1.5040    -1.1500    -5.9260 os         1 1N       -0.323900
     34 C5           2.1540    -1.2470    -7.1540 ca         1 1N        0.087100
     35 C4           1.4640    -0.6580    -8.2280 ca         1 1N       -0.138500
     36 C3           1.9380    -0.8270    -9.5230 ca         1 1N       -0.091000
     37 C6           3.3200    -1.9850    -7.3770 ca         1 1N       -0.138500
     38 C7           3.8050    -2.1370    -8.6750 ca         1 1N       -0.091000
     39 C2           3.1220    -1.5600    -9.7640 ca         1 1N        0.089600
     40 N3           3.6560    -1.6210   -11.0870 nu         1 1N       -0.662600
     41 C1           3.8860    -2.9100   -11.6650 c2         1 1N        0.721100
     42 N2           4.7500    -2.7860   -12.9440 nz         1 1N       -0.882600
     43 N1           3.5030    -4.0300   -11.1860 n2         1 1N       -0.719100
     44 H1           1.0910     1.9320    -0.6760 hn         1 1N        0.514133
     45 H2           2.0720     2.3910     0.6170 hn         1 1N        0.514133
     46 H3           1.4440    -1.2540     1.7580 hn         1 1N        0.544400
     47 H4           3.5460     0.5320    -0.5530 hn         1 1N        0.487300
     48 H5           1.0690    -0.2560    -1.7900 hx         1 1N        0.113700
     49 H6           3.8510     0.5940    -2.9980 h1         1 1N        0.091700
     50 H7           2.4420     1.1800    -4.9700 hc         1 1N        0.098700
     51 H8           0.9430     0.6110    -4.1420 hc         1 1N        0.098700
     52 H9           4.8260     3.0690    -2.1320 ha         1 1N        0.157000
     53 H10          5.4110     5.2960    -2.9960 ha         1 1N        0.173000
     54 H11          1.4860     5.5560    -4.9120 ha         1 1N        0.173000
     55 H12          0.9160     3.3280    -4.0160 ha         1 1N        0.157000
     56 H13          2.9520     7.3580    -4.9130 hn         1 1N        0.455800
     57 H14          6.7940     6.9610    -5.5900 hn         1 1N        0.488400
     58 H15          4.6000     9.4440    -5.2050 hn         1 1N        0.479800
     59 H16          4.9160     9.1330    -3.5950 hn         1 1N        0.479800
     60 H17          3.6190    -1.9090    -2.5290 hc         1 1N        0.094700
     61 H18          2.1670    -2.5570    -1.6430 hc         1 1N        0.094700
     62 H19          0.6770    -1.8400    -3.5740 h1         1 1N        0.076700
     63 H20          2.4390    -3.4580    -5.0570 hn         1 1N        0.424800
     64 H21          1.7930    -5.6590    -5.5620 ha         1 1N        0.133500
     65 H22          0.2360    -7.5000    -5.1680 ha         1 1N        0.153000
     66 H23         -1.5730    -5.2670    -1.8930 ha         1 1N        0.153000
     67 H24         -0.0160    -3.4310    -2.2810 ha         1 1N        0.133500
     68 H25         -2.5450    -7.2580    -2.7610 hn         1 1N        0.435800
     69 H26          0.0950   -10.0960    -2.3190 hn         1 1N        0.480400
     70 H27         -3.1900    -9.8770    -2.9400 hn         1 1N        0.473133
     71 H28         -2.5960    -9.7320    -4.4910 hn         1 1N        0.473133
     72 H29          3.3960    -1.1290    -4.9600 h1         1 1N        0.080700
     73 H30          0.5340    -0.0970    -8.0430 ha         1 1N        0.157500
     74 H31          1.3730    -0.3710   -10.3540 ha         1 1N        0.162000
     75 H32          3.8650    -2.4590    -6.5470 ha         1 1N        0.157500
     76 H33          4.7250    -2.7220    -8.8350 ha         1 1N        0.162000
     77 H34          3.1700    -1.0040   -11.7180 hn         1 1N        0.436800
     78 H35          4.2000    -2.3620   -13.6990 hn         1 1N        0.474467
     79 H36          5.0730    -3.7090   -13.2540 hn         1 1N        0.474467
     80 H37          3.7770    -4.9090   -11.5710 hn         1 1N        0.478400
     81 H133         0.4760     1.9460     0.9020 hn         1 1N        0.514133
     82 H53          6.1650     9.1690    -4.7010 hn         1 1N        0.479800
     83 H93         -1.9480   -10.8630    -3.4500 hn         1 1N        0.473133
     84 H231         5.5710    -2.1960   -12.7610 hn         1 1N        0.474467
     85 H112         3.1780    -1.0410    -0.1410 hn         1 1N        0.487300
@<TRIPOS>BOND
     1     1     2 1   
     2     1    44 1   
     3     1    45 1   
     4     1    81 1   
     5     2     3 2   
     6     2     4 1   
     7     3    46 1   
     8     4     5 1   
     9     4    47 1   
    10     4    85 1   
    11     5     6 1   
    12     5    19 1   
    13     5    48 1   
    14     6     7 1   
    15     6     8 1   
    16     6    49 1   
    17     7    32 1   
    18     7    50 1   
    19     7    51 1   
    20     8     9 1   
    21     9    10 ar  
    22     9    14 ar  
    23    10    11 ar  
    24    10    52 1   
    25    11    12 ar  
    26    11    53 1   
    27    12    13 ar  
    28    12    15 1   
    29    13    14 ar  
    30    13    54 1   
    31    14    55 1   
    32    15    16 1   
    33    15    56 1   
    34    16    17 2   
    35    16    18 1   
    36    17    57 1   
    37    18    58 1   
    38    18    59 1   
    39    18    82 1   
    40    19    20 1   
    41    19    60 1   
    42    19    61 1   
    43    20    21 1   
    44    20    32 1   
    45    20    62 1   
    46    21    22 1   
    47    21    63 1   
    48    22    23 ar  
    49    22    27 ar  
    50    23    24 ar  
    51    23    64 1   
    52    24    25 ar  
    53    24    65 1   
    54    25    26 ar  
    55    25    28 1   
    56    26    27 ar  
    57    26    66 1   
    58    27    67 1   
    59    28    29 1   
    60    28    68 1   
    61    29    30 2   
    62    29    31 1   
    63    30    69 1   
    64    31    70 1   
    65    31    71 1   
    66    31    83 1   
    67    32    33 1   
    68    32    72 1   
    69    33    34 1   
    70    34    35 ar  
    71    34    37 ar  
    72    35    36 ar  
    73    35    73 1   
    74    36    39 ar  
    75    36    74 1   
    76    37    38 ar  
    77    37    75 1   
    78    38    39 ar  
    79    38    76 1   
    80    39    40 1   
    81    40    41 1   
    82    40    77 1   
    83    41    42 1   
    84    41    43 2   
    85    42    78 1   
    86    42    79 1   
    87    42    84 1   
    88    43    80 1   
@<TRIPOS>SUBSTRUCTURE
     1 1N          1 TEMP              0 ****  ****    0 ROOT
