@<TRIPOS>MOLECULE
molecule
   84    87     1     0     0
SMALL
bcc


@<TRIPOS>ATOM
      1 N13          0.0000     0.0000     0.0000 nz         1 1N       -0.742600
      2 C28          1.3750     0.0000     0.0000 c2         1 1N        0.679100
      3 N12          2.0270     0.0000     1.1290 n2         1 1N       -0.795100
      4 N11          2.0620     0.0000    -1.1900 nu         1 1N       -0.913200
      5 C18          3.5270    -0.0000    -1.1910 c3         1 1N        0.244500
      6 C10          4.0380    -0.6100    -2.4980 c3         1 1N        0.135100
      7 C9           5.5670    -0.6100    -2.4980 c3         1 1N       -0.138400
      8 O2           3.5610    -1.9520    -2.6150 os         1 1N       -0.315900
      9 C11          3.4180    -2.4490    -3.8730 ca         1 1N        0.136100
     10 C17          3.8730    -1.7190    -4.9620 ca         1 1N       -0.150000
     11 C16          3.7270    -2.2230    -6.2390 ca         1 1N       -0.125000
     12 C14          3.1270    -3.4600    -6.4340 ca         1 1N        0.069600
     13 C13          2.6720    -4.1890    -5.3430 ca         1 1N       -0.125000
     14 C12          2.8220    -3.6870    -4.0660 ca         1 1N       -0.150000
     15 N4           2.9780    -3.9700    -7.7300 nu         1 1N       -0.720600
     16 C15          1.7830    -4.5340    -8.1150 c2         1 1N        0.689100
     17 N6           1.6320    -4.9740    -9.3320 n2         1 1N       -0.742100
     18 N5           0.7480    -4.6330    -7.2150 nz         1 1N       -0.810600
     19 C19          4.0370     1.4370    -1.0640 c3         1 1N       -0.133400
     20 C20          5.5670     1.4360    -1.0650 c3         1 1N        0.253500
     21 N7           6.0560     2.8130    -0.9450 nu         1 1N       -0.814600
     22 C21          6.1890     3.4000     0.3180 ca         1 1N        0.200600
     23 C27          6.6520     4.7040     0.4330 ca         1 1N       -0.182500
     24 C26          6.7840     5.2840     1.6790 ca         1 1N       -0.073000
     25 C24          6.4540     4.5620     2.8180 ca         1 1N        0.081600
     26 C23          5.9910     3.2580     2.7040 ca         1 1N       -0.073000
     27 C22          5.8540     2.6800     1.4580 ca         1 1N       -0.182500
     28 N8           6.5870     5.1500     4.0840 nu         1 1N       -0.705600
     29 C25          6.9100     4.3730     5.1730 c2         1 1N        0.690100
     30 N10          7.2030     3.1130     5.0110 n2         1 1N       -0.783100
     31 N9           6.9230     4.9260     6.4320 nz         1 1N       -0.805600
     32 C8           6.0770     0.8270    -2.3720 c3         1 1N        0.134100
     33 O1           7.5060     0.8260    -2.3720 os         1 1N       -0.295900
     34 C5           8.1240     0.7700    -3.5830 ca         1 1N        0.140100
     35 C4           9.5090     0.7980    -3.6560 ca         1 1N       -0.168000
     36 C3          10.1360     0.7400    -4.8850 ca         1 1N       -0.079000
     37 C6           7.3690     0.6790    -4.7430 ca         1 1N       -0.168000
     38 C7           7.9950     0.6210    -5.9720 ca         1 1N       -0.079000
     39 C2           9.3810     0.6540    -6.0470 ca         1 1N        0.095600
     40 N3          10.0160     0.5950    -7.2940 nu         1 1N       -0.706600
     41 C1           9.4500     1.2130    -8.3850 c2         1 1N        0.695100
     42 N2          10.0740     1.1560    -9.6090 nz         1 1N       -0.806600
     43 N1           8.3210     1.8520    -8.2580 n2         1 1N       -0.791100
     44 H1          -0.3340     0.7530    -0.5690 hn         1 1N        0.484467
     45 H2          -0.3340     0.1160     0.9360 hn         1 1N        0.484467
     46 H3           3.0280     0.0000     1.1310 hn         1 1N        0.473400
     47 H4           1.5620     0.0190    -2.0570 hn         1 1N        0.443800
     48 H5           3.8930    -0.5850    -0.3550 h1         1 1N        0.089700
     49 H6           3.6790    -0.0210    -3.3330 h1         1 1N        0.054700
     50 H7           5.9260    -1.1940    -1.6590 hc         1 1N        0.091200
     51 H8           5.9270    -1.0400    -3.4240 hc         1 1N        0.091200
     52 H9           4.3410    -0.7540    -4.8100 ha         1 1N        0.162500
     53 H10          4.0820    -1.6540    -7.0900 ha         1 1N        0.144500
     54 H11          2.2050    -5.1550    -5.4940 ha         1 1N        0.144500
     55 H12          2.4670    -4.2560    -3.2150 ha         1 1N        0.162500
     56 H13          3.7350    -3.9080    -8.3820 hn         1 1N        0.517800
     57 H14          0.7630    -5.3850    -9.6130 hn         1 1N        0.460400
     58 H15          0.8200    -5.4980    -6.7170 hn         1 1N        0.471467
     59 H16         -0.1240    -4.6020    -7.7040 hn         1 1N        0.471467
     60 H17          3.6770     1.8660    -0.1370 hc         1 1N        0.074700
     61 H18          3.6770     2.0220    -1.9030 hc         1 1N        0.074700
     62 H19          5.9270     0.8470    -0.2300 h1         1 1N        0.087700
     63 H20          6.2590     3.3450    -1.7680 hn         1 1N        0.454800
     64 H21          6.9100     5.2670    -0.4560 ha         1 1N        0.140000
     65 H22          7.1450     6.3010     1.7680 ha         1 1N        0.153500
     66 H23          5.7320     2.6960     3.5930 ha         1 1N        0.153500
     67 H24          5.4930     1.6620     1.3700 ha         1 1N        0.140000
     68 H25          6.5400     6.1450     4.1780 hn         1 1N        0.468800
     69 H26          7.4380     2.5480     5.8030 hn         1 1N        0.443400
     70 H27          6.0830     4.6770     6.9150 hn         1 1N        0.474467
     71 H28          6.9820     5.9230     6.3580 hn         1 1N        0.474467
     72 H29          5.7120     1.4120    -3.2080 h1         1 1N        0.053700
     73 H30         10.0990     0.8490    -2.7490 ha         1 1N        0.152000
     74 H31         11.2180     0.7500    -4.9420 ha         1 1N        0.154500
     75 H32          6.2870     0.7110    -4.6880 ha         1 1N        0.152000
     76 H33          7.4070     0.5090    -6.8740 ha         1 1N        0.154500
     77 H34         10.9280     0.1880    -7.3690 hn         1 1N        0.472800
     78 H35         11.0620     1.2610    -9.4840 hn         1 1N        0.476133
     79 H36          9.8850     0.2730   -10.0400 hn         1 1N        0.476133
     80 H37          7.9080     2.3020    -9.0510 hn         1 1N        0.442400
     81 H133        -0.3340    -0.8680    -0.3700 hn         1 1N        0.484467
     82 H53          0.7970    -3.8740    -6.5640 hn         1 1N        0.471467
     83 H93          7.7110     4.5770     6.9410 hn         1 1N        0.474467
     84 H231         9.7430     1.9020   -10.1880 hn         1 1N        0.476133
@<TRIPOS>BOND
     1     3     2 2   
     2     1     2 1   
     3     2     4 1   
     4    13    14 ar  
     5    13    12 ar  
     6    14     9 ar  
     7    17    16 2   
     8    18    16 1   
     9    16    15 1   
    10    15    12 1   
    11    12    11 ar  
    12     9     8 1   
    13     9    10 ar  
    14     4     5 1   
    15     8     6 1   
    16     5     6 1   
    17     5    19 1   
    18    11    10 ar  
    19     6     7 1   
    20    19    20 1   
    21     7    32 1   
    22    20    32 1   
    23    20    21 1   
    24    26    27 ar  
    25    26    25 ar  
    26    28    25 1   
    27    28    29 1   
    28    32    33 1   
    29    27    22 ar  
    30    25    24 ar  
    31    30    29 2   
    32    22    21 1   
    33    22    23 ar  
    34    24    23 ar  
    35    33    34 1   
    36    29    31 1   
    37    34    37 ar  
    38    34    35 ar  
    39    37    38 ar  
    40    35    36 ar  
    41    38    39 ar  
    42    36    39 ar  
    43    39    40 1   
    44    40    41 1   
    45    43    41 2   
    46    41    42 1   
    47     1    44 1   
    48     1    45 1   
    49     3    46 1   
    50     4    47 1   
    51     5    48 1   
    52     6    49 1   
    53     7    50 1   
    54     7    51 1   
    55    10    52 1   
    56    11    53 1   
    57    13    54 1   
    58    14    55 1   
    59    15    56 1   
    60    17    57 1   
    61    18    58 1   
    62    18    59 1   
    63    19    60 1   
    64    19    61 1   
    65    20    62 1   
    66    21    63 1   
    67    23    64 1   
    68    24    65 1   
    69    26    66 1   
    70    27    67 1   
    71    28    68 1   
    72    30    69 1   
    73    31    70 1   
    74    31    71 1   
    75    32    72 1   
    76    35    73 1   
    77    36    74 1   
    78    37    75 1   
    79    38    76 1   
    80    40    77 1   
    81    42    78 1   
    82    42    79 1   
    83    43    80 1   
    84    81     1 1   
    85    82    18 1   
    86    83    31 1   
    87    84    42 1   
@<TRIPOS>SUBSTRUCTURE
     1 1N          1 TEMP              0 ****  ****    0 ROOT
