@<TRIPOS>MOLECULE
1N
   84    87     1     0     0
SMALL
bcc


@<TRIPOS>ATOM
      1 N13          0.0000     0.0000     0.0000 nz         1 1N        0.130400
      2 C28          1.3750     0.0000     0.0000 c2         1 1N        0.260100
      3 N12          2.0270     0.0000     1.1290 n2         1 1N       -0.601100
      4 N11          2.0620     0.0000    -1.1900 nu         1 1N       -0.419200
      5 C18          3.5270    -0.0000    -1.1910 c3         1 1N        0.140500
      6 C10          4.0380    -0.6100    -2.4980 c3         1 1N        0.162100
      7 C9           5.5670    -0.6100    -2.4980 c3         1 1N       -0.095400
      8 O2           3.5610    -1.9520    -2.6150 os         1 1N       -0.293900
      9 C11          3.4180    -2.4490    -3.8730 ca         1 1N        0.149100
     10 C17          3.8730    -1.7190    -4.9620 ca         1 1N       -0.130500
     11 C16          3.7270    -2.2230    -6.2390 ca         1 1N       -0.086000
     12 C14          3.1270    -3.4600    -6.4340 ca         1 1N       -0.086400
     13 C13          2.6720    -4.1890    -5.3430 ca         1 1N       -0.086000
     14 C12          2.8220    -3.6870    -4.0660 ca         1 1N       -0.130500
     15 N4           2.9780    -3.9700    -7.7300 nu         1 1N       -0.303600
     16 C15          1.7830    -4.5340    -8.1150 c2         1 1N        0.228100
     17 N6           1.6320    -4.9740    -9.3320 n2         1 1N       -0.550100
     18 N5           0.7480    -4.6330    -7.2150 nz         1 1N        0.163400
     19 C19          4.0370     1.4370    -1.0640 c3         1 1N       -0.064400
     20 C20          5.5670     1.4360    -1.0650 c3         1 1N        0.139500
     21 N7           6.0560     2.8130    -0.9450 nu         1 1N       -0.407600
     22 C21          6.1890     3.4000     0.3180 ca         1 1N        0.063600
     23 C27          6.6520     4.7040     0.4330 ca         1 1N       -0.143000
     24 C26          6.7840     5.2840     1.6790 ca         1 1N       -0.073000
     25 C24          6.4540     4.5620     2.8180 ca         1 1N       -0.085400
     26 C23          5.9910     3.2580     2.7040 ca         1 1N       -0.073000
     27 C22          5.8540     2.6800     1.4580 ca         1 1N       -0.143000
     28 N8           6.5870     5.1500     4.0840 nu         1 1N       -0.273600
     29 C25          6.9100     4.3730     5.1730 c2         1 1N        0.233100
     30 N10          7.2030     3.1130     5.0110 n2         1 1N       -0.654100
     31 N9           6.9230     4.9260     6.4320 nz         1 1N        0.199400
     32 C8           6.0770     0.8270    -2.3720 c3         1 1N        0.164100
     33 O1           7.5060     0.8260    -2.3720 os         1 1N       -0.274900
     34 C5           8.1240     0.7700    -3.5830 ca         1 1N        0.155100
     35 C4           9.5090     0.7980    -3.6560 ca         1 1N       -0.132000
     36 C3          10.1360     0.7400    -4.8850 ca         1 1N       -0.079500
     37 C6           7.3690     0.6790    -4.7430 ca         1 1N       -0.132000
     38 C7           7.9950     0.6210    -5.9720 ca         1 1N       -0.079500
     39 C2           9.3810     0.6540    -6.0470 ca         1 1N       -0.065400
     40 N3          10.0160     0.5950    -7.2940 nu         1 1N       -0.274600
     41 C1           9.4500     1.2130    -8.3850 c2         1 1N        0.241100
     42 N2          10.0740     1.1560    -9.6090 nz         1 1N        0.194400
     43 N1           8.3210     1.8520    -8.2580 n2         1 1N       -0.662100
     44 H1          -0.3340    -0.8850     0.3260 hn         1 1N        0.232800
     45 H2          -0.3340     0.7250     0.6040 hn         1 1N        0.232800
     46 H3           1.5290    -0.0000     1.9970 hn         1 1N        0.359400
     47 H4           1.5620    -0.0200    -2.0570 hn         1 1N        0.296800
     48 H5           3.8930    -0.5850    -0.3550 h1         1 1N        0.086700
     49 H6           3.6790    -0.0210    -3.3330 h1         1 1N        0.024700
     50 H7           5.9260    -1.1940    -1.6590 hc         1 1N        0.059200
     51 H8           5.9270    -1.0400    -3.4240 hc         1 1N        0.059200
     52 H9           4.3410    -0.7540    -4.8100 ha         1 1N        0.134500
     53 H10          4.0820    -1.6540    -7.0900 ha         1 1N        0.113500
     54 H11          2.2050    -5.1550    -5.4940 ha         1 1N        0.113500
     55 H12          2.4670    -4.2560    -3.2150 ha         1 1N        0.134500
     56 H13          3.7180    -3.8650    -8.3960 hn         1 1N        0.330800
     57 H14          2.3840    -4.9030    -9.9890 hn         1 1N        0.381400
     58 H15          0.7940    -3.8720    -6.5660 hn         1 1N        0.232800
     59 H16         -0.1240    -4.6000    -7.7050 hn         1 1N        0.232800
     60 H17          3.6780     1.8660    -0.1370 hc         1 1N        0.040200
     61 H18          3.6770     2.0220    -1.9020 hc         1 1N        0.040200
     62 H19          5.9270     0.8470    -0.2300 h1         1 1N        0.066700
     63 H20          6.2860     3.3360    -1.7670 hn         1 1N        0.305800
     64 H21          6.9100     5.2670    -0.4560 ha         1 1N        0.124500
     65 H22          7.1450     6.3010     1.7680 ha         1 1N        0.125000
     66 H23          5.7320     2.6960     3.5930 ha         1 1N        0.125000
     67 H24          5.4930     1.6620     1.3700 ha         1 1N        0.124500
     68 H25          6.5230     6.1440     4.1810 hn         1 1N        0.300800
     69 H26          7.1940     2.7080     4.0960 hn         1 1N        0.409400
     70 H27          7.8590     5.1870     6.6710 hn         1 1N        0.227133
     71 H28          6.5840     4.2570     7.0940 hn         1 1N        0.227133
     72 H29          5.7120     1.4120    -3.2080 h1         1 1N        0.025700
     73 H30         10.0990     0.8620    -2.7500 ha         1 1N        0.130500
     74 H31         11.2180     0.7550    -4.9430 ha         1 1N        0.125500
     75 H32          6.2880     0.6360    -4.6830 ha         1 1N        0.130500
     76 H33          7.4070     0.4900    -6.8720 ha         1 1N        0.125500
     77 H34         10.9250     0.1830    -7.3700 hn         1 1N        0.303800
     78 H35          9.4620     1.5170   -10.3130 hn         1 1N        0.229467
     79 H36         10.3040     0.2060    -9.8230 hn         1 1N        0.229467
     80 H37          7.8640     1.8950    -7.3690 hn         1 1N        0.406400
     81 H133        -0.3340     0.1630    -0.9290 hn         1 1N        0.232800
     82 H53          0.8270    -5.4920    -6.7080 hn         1 1N        0.232800
     83 H93          6.3250     5.7290     6.4510 hn         1 1N        0.227133
     84 H231        10.9010     1.7200    -9.5880 hn         1 1N        0.229467
@<TRIPOS>BOND
     1     1     2 1   
     2     1    44 1   
     3     1    45 1   
     4     1    81 1   
     5     2     3 2   
     6     2     4 1   
     7     3    46 1   
     8     4     5 1   
     9     4    47 1   
    10     5     6 1   
    11     5    19 1   
    12     5    48 1   
    13     6     7 1   
    14     6     8 1   
    15     6    49 1   
    16     7    32 1   
    17     7    50 1   
    18     7    51 1   
    19     8     9 1   
    20     9    10 ar  
    21     9    14 ar  
    22    10    11 ar  
    23    10    52 1   
    24    11    12 ar  
    25    11    53 1   
    26    12    13 ar  
    27    12    15 1   
    28    13    14 ar  
    29    13    54 1   
    30    14    55 1   
    31    15    16 1   
    32    15    56 1   
    33    16    17 2   
    34    16    18 1   
    35    17    57 1   
    36    18    58 1   
    37    18    59 1   
    38    18    82 1   
    39    19    20 1   
    40    19    60 1   
    41    19    61 1   
    42    20    21 1   
    43    20    32 1   
    44    20    62 1   
    45    21    22 1   
    46    21    63 1   
    47    22    23 ar  
    48    22    27 ar  
    49    23    24 ar  
    50    23    64 1   
    51    24    25 ar  
    52    24    65 1   
    53    25    26 ar  
    54    25    28 1   
    55    26    27 ar  
    56    26    66 1   
    57    27    67 1   
    58    28    29 1   
    59    28    68 1   
    60    29    30 2   
    61    29    31 1   
    62    30    69 1   
    63    31    70 1   
    64    31    71 1   
    65    31    83 1   
    66    32    33 1   
    67    32    72 1   
    68    33    34 1   
    69    34    35 ar  
    70    34    37 ar  
    71    35    36 ar  
    72    35    73 1   
    73    36    39 ar  
    74    36    74 1   
    75    37    38 ar  
    76    37    75 1   
    77    38    39 ar  
    78    38    76 1   
    79    39    40 1   
    80    40    41 1   
    81    40    77 1   
    82    41    42 1   
    83    41    43 2   
    84    42    78 1   
    85    42    79 1   
    86    42    84 1   
    87    43    80 1   
@<TRIPOS>SUBSTRUCTURE
     1 1N          1 TEMP              0 ****  ****    0 ROOT
