@<TRIPOS>MOLECULE
1N0
   40    41     1     0     0
SMALL
bcc


@<TRIPOS>ATOM
      1 O20          0.0000     0.0000     0.0000 o          1 1N0      -0.622500
      2 C15          1.2120     0.0000     0.0000 c          1 1N0       0.628750
      3 C16          2.0890     0.0000     1.2340 c3         1 1N0      -0.117400
      4 C17          3.5200    -0.0000     0.6600 c3         1 1N0      -0.117400
      5 C18          3.3020     0.0000    -0.8380 c          1 1N0       0.628750
      6 O19          4.1790    -0.0010    -1.6750 o          1 1N0      -0.622500
      7 N14          1.9880    -0.0050    -1.0910 n          1 1N0      -0.127900
      8 C13          1.4420    -0.0120    -2.4510 c3         1 1N0       0.040000
      9 C12          1.2520     1.4280    -2.9310 c3         1 1N0      -0.048900
     10 C11          0.6830     1.4210    -4.3510 c3         1 1N0      -0.021400
     11 C10          0.4940     2.8620    -4.8310 c3         1 1N0      -0.021400
     12 C9          -0.0760     2.8540    -6.2520 c3         1 1N0      -0.048900
     13 C8          -0.2650     4.2950    -6.7320 c3         1 1N0       0.040000
     14 N4          -0.8110     4.2890    -8.0920 n          1 1N0      -0.127900
     15 C3          -2.1260     4.2870    -8.3460 c          1 1N0       0.628750
     16 O7          -3.0020     4.2920    -7.5070 o          1 1N0      -0.622500
     17 C2          -2.3430     4.2800    -9.8430 c3         1 1N0      -0.117400
     18 C5          -0.0350     4.2880    -9.1840 c          1 1N0       0.628750
     19 O6           1.1760     4.2900    -9.1840 o          1 1N0      -0.622500
     20 C1          -0.9120     4.2770   -10.4170 c3         1 1N0      -0.117400
     21 H1           1.9160    -0.8930     1.8220 hc         1 1N0       0.050700
     22 H2           4.0520     0.8930     0.9660 hc         1 1N0       0.050700
     23 H3           2.1280    -0.5260    -3.1130 h1         1 1N0       0.042700
     24 H4           0.4860    -0.5220    -2.4530 h1         1 1N0       0.042700
     25 H5           0.5660     1.9420    -2.2690 hc         1 1N0       0.025950
     26 H6           2.2080     1.9390    -2.9270 hc         1 1N0       0.025950
     27 H7          -0.2720     0.9110    -4.3550 hc         1 1N0       0.018700
     28 H8           1.3700     0.9070    -5.0130 hc         1 1N0       0.018700
     29 H9           1.4490     3.3720    -4.8280 hc         1 1N0       0.018700
     30 H10         -0.1930     3.3760    -4.1700 hc         1 1N0       0.018700
     31 H11         -1.0310     2.3440    -6.2560 hc         1 1N0       0.025950
     32 H12          0.6110     2.3400    -6.9140 hc         1 1N0       0.025950
     33 H13          0.6900     4.8050    -6.7290 h1         1 1N0       0.042700
     34 H14         -0.9510     4.8090    -6.0700 h1         1 1N0       0.042700
     35 H15         -2.8750     3.3860   -10.1450 hc         1 1N0       0.050700
     36 H16         -0.7380     3.3790   -10.9980 hc         1 1N0       0.050700
     37 H17          1.9160     0.8930     1.8220 hc         1 1N0       0.050700
     38 H18          4.0520    -0.8930     0.9660 hc         1 1N0       0.050700
     39 H19         -2.8750     5.1720   -10.1530 hc         1 1N0       0.050700
     40 H20         -0.7400     5.1650   -11.0130 hc         1 1N0       0.050700
@<TRIPOS>BOND
     1     1     2 2   
     2     2     3 1   
     3     2     7 1   
     4     3     4 1   
     5     3    21 1   
     6     3    37 1   
     7     4     5 1   
     8     4    22 1   
     9     4    38 1   
    10     5     6 2   
    11     5     7 1   
    12     7     8 1   
    13     8     9 1   
    14     8    23 1   
    15     8    24 1   
    16     9    10 1   
    17     9    25 1   
    18     9    26 1   
    19    10    11 1   
    20    10    27 1   
    21    10    28 1   
    22    11    12 1   
    23    11    29 1   
    24    11    30 1   
    25    12    13 1   
    26    12    31 1   
    27    12    32 1   
    28    13    14 1   
    29    13    33 1   
    30    13    34 1   
    31    14    15 1   
    32    14    18 1   
    33    15    16 2   
    34    15    17 1   
    35    17    20 1   
    36    17    35 1   
    37    17    39 1   
    38    18    19 2   
    39    18    20 1   
    40    20    36 1   
    41    20    40 1   
@<TRIPOS>SUBSTRUCTURE
     1 1N0         1 TEMP              0 ****  ****    0 ROOT
