@<TRIPOS>MOLECULE
1N0
   40    41     1     0     0
SMALL
bcc


@<TRIPOS>ATOM
      1 O20          0.3770     0.2780    -0.0750 o          1 1N0      -0.584500
      2 C15          1.6020     0.2060    -0.2120 c          1 1N0       0.699000
      3 C16          2.6440     0.3520     0.8940 c3         1 1N0      -0.163400
      4 C17          3.9930     0.1820     0.1990 c3         1 1N0      -0.163400
      5 C18          3.6590    -0.0520    -1.2720 c          1 1N0       0.699000
      6 O19          4.4690    -0.2330    -2.1860 o          1 1N0      -0.584500
      7 N14          2.2580    -0.0130    -1.4420 n          1 1N0      -0.514400
      8 C13          1.5840    -0.2290    -2.6940 c3         1 1N0       0.099000
      9 C12          1.1230    -1.6690    -2.9320 c3         1 1N0      -0.100400
     10 C11          0.4580    -1.8080    -4.2850 c3         1 1N0      -0.079400
     11 C10         -0.9300    -1.2020    -4.3140 c3         1 1N0      -0.079400
     12 C9          -1.6670    -1.5020    -5.6010 c3         1 1N0      -0.100400
     13 C8          -1.1150    -0.6650    -6.7570 c3         1 1N0       0.099000
     14 N4          -1.7810    -0.8650    -8.0160 n          1 1N0      -0.514400
     15 C3          -1.4970    -1.9200    -8.9090 c          1 1N0       0.699000
     16 O7          -0.6180    -2.7690    -8.7320 o          1 1N0      -0.584500
     17 C2          -2.4310    -1.8250   -10.1120 c3         1 1N0      -0.163400
     18 C5          -2.8430    -0.0670    -8.4920 c          1 1N0       0.699000
     19 O6          -3.2950     0.9200    -7.9030 o          1 1N0      -0.584500
     20 C1          -3.3150    -0.6100    -9.8380 c3         1 1N0      -0.163400
     21 H1           2.4690    -0.4300     1.6730 hc         1 1N0       0.089200
     22 H2           4.6340     1.0930     0.2930 hc         1 1N0       0.089200
     23 H3           2.2930     0.0710    -3.5190 h1         1 1N0       0.068200
     24 H4           0.6840     0.4500    -2.7180 h1         1 1N0       0.068200
     25 H5           2.0070    -2.3580    -2.8890 hc         1 1N0       0.052700
     26 H6           0.4100    -1.9780    -2.1230 hc         1 1N0       0.052700
     27 H7           0.3870    -2.9000    -4.5370 hc         1 1N0       0.046700
     28 H8           1.0990    -1.3290    -5.0720 hc         1 1N0       0.046700
     29 H9          -0.8640    -0.0910    -4.1680 hc         1 1N0       0.046700
     30 H10         -1.5280    -1.6110    -3.4560 hc         1 1N0       0.046700
     31 H11         -2.7560    -1.2740    -5.4590 hc         1 1N0       0.052700
     32 H12         -1.5780    -2.5930    -5.8470 hc         1 1N0       0.052700
     33 H13         -0.0260    -0.9210    -6.9040 h1         1 1N0       0.068200
     34 H14         -1.2030     0.4280    -6.4940 h1         1 1N0       0.068200
     35 H15         -1.8250    -1.7030   -11.0440 hc         1 1N0       0.089200
     36 H16         -4.3970    -0.8820    -9.7690 hc         1 1N0       0.089200
     37 H17          2.5400     1.3580     1.3710 hc         1 1N0       0.089200
     38 H18          4.5630    -0.6950     0.5930 hc         1 1N0       0.089200
     39 H19         -3.0250    -2.7680   -10.1960 hc         1 1N0       0.089200
     40 H20         -3.1980     0.1820   -10.6190 hc         1 1N0       0.089200
@<TRIPOS>BOND
     1     1     2 2   
     2     2     3 1   
     3     2     7 1   
     4     3     4 1   
     5     3    21 1   
     6     3    37 1   
     7     4     5 1   
     8     4    22 1   
     9     4    38 1   
    10     5     6 2   
    11     5     7 1   
    12     7     8 1   
    13     8     9 1   
    14     8    23 1   
    15     8    24 1   
    16     9    10 1   
    17     9    25 1   
    18     9    26 1   
    19    10    11 1   
    20    10    27 1   
    21    10    28 1   
    22    11    12 1   
    23    11    29 1   
    24    11    30 1   
    25    12    13 1   
    26    12    31 1   
    27    12    32 1   
    28    13    14 1   
    29    13    33 1   
    30    13    34 1   
    31    14    15 1   
    32    14    18 1   
    33    15    16 2   
    34    15    17 1   
    35    17    20 1   
    36    17    35 1   
    37    17    39 1   
    38    18    19 2   
    39    18    20 1   
    40    20    36 1   
    41    20    40 1   
@<TRIPOS>SUBSTRUCTURE
     1 1N0         1 TEMP              0 ****  ****    0 ROOT
