@<TRIPOS>MOLECULE
1N1
   59    62     1     0     0
SMALL
bcc


@<TRIPOS>ATOM
      1 C1           0.0000     0.0000     0.0000 cc         1 1N1       0.479200
      2 C2           1.3670     0.0000     0.0000 cd         1 1N1      -0.231000
      3 C3           2.2290     0.0010    -1.1810 c          1 1N1       0.630700
      4 N6          -4.9860    -0.9660     9.1180 n3         1 1N1      -0.527600
      5 C7           6.0240    -0.3380    -4.3870 ca         1 1N1      -0.089000
      6 C8           6.2040    -1.1860    -3.3110 ca         1 1N1      -0.095000
      7 C9           5.3910    -1.0760    -2.1990 ca         1 1N1      -0.090300
      8 C10          5.5890    -2.0020    -1.0260 c3         1 1N1       0.062200
      9 C11         -1.4570    -0.1150     3.8590 ca         1 1N1       0.515200
     10 C12         -1.8770    -0.0060     5.1810 ca         1 1N1      -0.438600
     11 C13         -3.2360    -0.1270     5.4550 ca         1 1N1       0.558200
     12 C14         -3.6440    -0.4370     3.2080 ca         1 1N1       0.654300
     13 C15         -4.6370    -0.6800     2.1000 c3         1 1N1      -0.034400
     14 C16         -5.1640    -0.1840     6.8040 c3         1 1N1       0.143800
     15 C19         -3.0410    -1.0030     7.6310 c3         1 1N1       0.143800
     16 C20         -5.4820    -0.8580    10.4960 c3         1 1N1       0.144800
     17 C21         -6.8700    -1.4950    10.5890 c3         1 1N1       0.222400
     18 N           -0.1120    -0.0020     3.5360 nu         1 1N1      -0.347600
     19 C            0.2810    -0.0010     2.2120 cd         1 1N1       0.545300
     20 N1          -0.5330    -0.0010     1.1960 nc         1 1N1      -0.586000
     21 S            1.9050     0.0000     1.6790 ss         1 1N1      -0.334300
     22 N2           3.5700     0.0020    -1.0370 ns         1 1N1      -0.047100
     23 C4           4.3940    -0.1120    -2.1630 ca         1 1N1      -0.088400
     24 C5           4.2150     0.7400    -3.2460 ca         1 1N1      -0.022600
     25 C6           5.0310     0.6250    -4.3550 ca         1 1N1      -0.096000
     26 Cl           2.9690     1.9480    -3.2060 cl         1 1N1       0.016600
     27 O            1.7360     0.0030    -2.2940 o          1 1N1      -0.625100
     28 N3          -4.0810    -0.3400     4.4480 nb         1 1N1      -0.696000
     29 N4          -2.3650    -0.3340     2.9110 nb         1 1N1      -0.635000
     30 N5          -3.7040    -0.0250     6.7560 nh         1 1N1      -0.467300
     31 C17         -5.6480     0.0120     8.2430 c3         1 1N1       0.147300
     32 C18         -3.5250    -0.8070     9.0690 c3         1 1N1       0.147300
     33 O1          -6.7710    -2.8960    10.3180 oh         1 1N1      -0.576800
     34 H1          -0.5900     0.0000    -0.9090 h4         1 1N1       0.019100
     35 H7           6.6620    -0.4260    -5.2580 ha         1 1N1       0.105000
     36 H8           6.9830    -1.9380    -3.3390 ha         1 1N1       0.108000
     37 H101         5.9310    -1.4330    -0.1700 hc         1 1N1       0.010033
     38 H102         6.3280    -2.7530    -1.2790 hc         1 1N1       0.010033
     39 H103         4.6500    -2.4870    -0.7860 hc         1 1N1       0.010033
     40 H12         -1.1630     0.1690     5.9780 ha         1 1N1       0.133000
     41 H151        -5.6430    -0.5540     2.4820 hc         1 1N1       0.020700
     42 H152        -4.4630     0.0270     1.2990 hc         1 1N1       0.020700
     43 H153        -4.5180    -1.6890     1.7240 hc         1 1N1       0.020700
     44 H161        -5.6280     0.5560     6.1640 h1         1 1N1       0.030450
     45 H162        -5.4290    -1.1790     6.4670 h1         1 1N1       0.030450
     46 H191        -3.2870    -2.0060     7.3010 h1         1 1N1       0.030450
     47 H192        -1.9690    -0.8560     7.5880 h1         1 1N1       0.030450
     48 H201        -5.5440     0.1860    10.7770 h1         1 1N1       0.015200
     49 H202        -4.8030    -1.3730    11.1650 h1         1 1N1       0.015200
     50 H211        -7.5290    -1.0330     9.8650 h1         1 1N1      -0.013300
     51 H212        -7.2690    -1.3480    11.5860 h1         1 1N1      -0.013300
     52 HN           0.5720     0.0860     4.2610 hn         1 1N1       0.292800
     53 HN2          3.9750     0.1370    -0.1320 hn         1 1N1       0.176500
     54 H6           4.8920     1.2880    -5.2000 ha         1 1N1       0.115000
     55 H171        -6.7210    -0.1350     8.2850 h1         1 1N1       0.015700
     56 H172        -5.4020     1.0150     8.5720 h1         1 1N1       0.015700
     57 H181        -3.0610    -1.5470     9.7100 h1         1 1N1       0.015700
     58 H182        -3.2600     0.1880     9.4060 h1         1 1N1       0.015700
     59 HO1         -7.5430    -3.3330    10.6380 ho         1 1N1       0.383000
@<TRIPOS>BOND
     1     1     2 2   
     2     1    20 1   
     3     1    34 1   
     4     2     3 1   
     5     2    21 1   
     6     3    22 1   
     7     3    27 2   
     8     4    16 1   
     9     4    31 1   
    10     4    32 1   
    11     5     6 ar  
    12     5    25 ar  
    13     5    35 1   
    14     6     7 ar  
    15     6    36 1   
    16     7     8 1   
    17     7    23 ar  
    18     8    37 1   
    19     8    38 1   
    20     8    39 1   
    21     9    10 ar  
    22     9    18 1   
    23     9    29 ar  
    24    10    11 ar  
    25    10    40 1   
    26    11    28 ar  
    27    11    30 1   
    28    12    13 1   
    29    12    28 ar  
    30    12    29 ar  
    31    13    41 1   
    32    13    42 1   
    33    13    43 1   
    34    14    30 1   
    35    14    31 1   
    36    14    44 1   
    37    14    45 1   
    38    15    30 1   
    39    15    32 1   
    40    15    46 1   
    41    15    47 1   
    42    16    17 1   
    43    16    48 1   
    44    16    49 1   
    45    17    33 1   
    46    17    50 1   
    47    17    51 1   
    48    18    19 1   
    49    18    52 1   
    50    19    20 2   
    51    19    21 1   
    52    22    23 1   
    53    22    53 1   
    54    23    24 ar  
    55    24    25 ar  
    56    24    26 1   
    57    25    54 1   
    58    31    55 1   
    59    31    56 1   
    60    32    57 1   
    61    32    58 1   
    62    33    59 1   
@<TRIPOS>SUBSTRUCTURE
     1 1N1         1 TEMP              0 ****  ****    0 ROOT
