@<TRIPOS>MOLECULE
1N1
   59    62     1     0     0
SMALL
bcc


@<TRIPOS>ATOM
      1 C1           0.0530     0.5970     0.0770 cc         1 1N1       0.398200
      2 C2           1.3020    -0.0100     0.2530 cd         1 1N1      -0.369000
      3 C3           2.1470    -0.5660    -0.8120 c          1 1N1       0.719700
      4 N6           0.4530     0.1910    10.7580 n3         1 1N1      -0.726600
      5 C7           4.3700    -0.8620    -5.4600 ca         1 1N1      -0.125000
      6 C8           3.6150    -1.8750    -4.8780 ca         1 1N1      -0.123000
      7 C9           2.8110    -1.6320    -3.7590 ca         1 1N1      -0.043300
      8 C10          2.0130    -2.7420    -3.1880 c3         1 1N1      -0.063800
      9 C11          0.6910     0.9570     4.6990 ca         1 1N1       0.695200
     10 C12          0.2060     1.4120     5.9580 ca         1 1N1      -0.442600
     11 C13          1.0730     1.2910     7.0800 ca         1 1N1       0.684200
     12 C14          2.7060     0.3600     5.6940 ca         1 1N1       0.718300
     13 C15          4.0960    -0.2160     5.5360 c3         1 1N1      -0.139400
     14 C16          1.6090     1.9380     9.4050 c3         1 1N1       0.180800
     15 C19         -0.6360     1.3230     8.8150 c3         1 1N1       0.180800
     16 C20          0.6100    -0.9900    11.5910 c3         1 1N1       0.176800
     17 C21         -0.6410    -1.8390    11.8310 c3         1 1N1       0.125400
     18 N           -0.1600     1.0260     3.5900 nu         1 1N1      -0.817600
     19 C            0.2400     0.7370     2.2910 cd         1 1N1       0.594300
     20 N1          -0.5630     1.0280     1.2170 nc         1 1N1      -0.704000
     21 S            1.7110    -0.0480     1.8740 ss         1 1N1       0.151700
     22 N2           1.9550    -0.0300    -2.0870 ns         1 1N1      -0.465100
     23 C4           2.7780    -0.3340    -3.1930 ca         1 1N1       0.050600
     24 C5           3.5500     0.6860    -3.8050 ca         1 1N1      -0.008600
     25 C6           4.3340     0.4250    -4.9280 ca         1 1N1      -0.119000
     26 Cl           3.5310     2.2740    -3.1820 cl         1 1N1      -0.102400
     27 O            2.9640    -1.4820    -0.5960 o          1 1N1      -0.591100
     28 N3           2.3290     0.7520     6.9400 nb         1 1N1      -0.773000
     29 N4           1.9470     0.4300     4.5590 nb         1 1N1      -0.797000
     30 N5           0.6410     1.8250     8.3240 nh         1 1N1      -0.722300
     31 C17          1.7410     0.6800    10.2850 c3         1 1N1       0.138800
     32 C18         -0.5350     0.0630     9.7020 c3         1 1N1       0.138800
     33 O1          -1.6190    -1.0430    12.4750 oh         1 1N1      -0.587800
     34 H1          -0.4710     0.7400    -0.8780 h4         1 1N1       0.045100
     35 H7           4.9940    -1.0730    -6.3400 ha         1 1N1       0.138000
     36 H8           3.6440    -2.8890    -5.3060 ha         1 1N1       0.138000
     37 H101         0.9400    -2.4430    -3.0840 hc         1 1N1       0.056367
     38 H102         2.0640    -3.6500    -3.8370 hc         1 1N1       0.056367
     39 H103         2.4020    -3.0100    -2.1710 hc         1 1N1       0.056367
     40 H12         -0.7900     1.8620     6.0530 ha         1 1N1       0.159000
     41 H151         4.6110    -0.3020     6.5240 hc         1 1N1       0.066033
     42 H152         4.6980     0.4520     4.8710 hc         1 1N1       0.066033
     43 H153         4.0330    -1.2300     5.0700 hc         1 1N1       0.066033
     44 H161         2.6240     2.2040     9.0060 h1         1 1N1       0.069450
     45 H162         1.2480     2.7970    10.0430 h1         1 1N1       0.069450
     46 H191        -1.3240     1.0860     7.9590 h1         1 1N1       0.069450
     47 H192        -1.0910     2.1610     9.4170 h1         1 1N1       0.069450
     48 H201         0.9760    -0.6150    12.5900 h1         1 1N1       0.042700
     49 H202         1.3900    -1.6950    11.1720 h1         1 1N1       0.042700
     50 H211        -0.3530    -2.7040    12.4900 h1         1 1N1       0.023700
     51 H212        -1.0500    -2.2450    10.8660 h1         1 1N1       0.023700
     52 HN          -1.0200     1.5180     3.7160 hn         1 1N1       0.465800
     53 HN2          1.4950     0.8540    -2.1360 hn         1 1N1       0.318500
     54 H6           4.9250     1.2320    -5.3880 ha         1 1N1       0.148000
     55 H171         2.3530     0.9520    11.1900 h1         1 1N1       0.043950
     56 H172         2.3080    -0.1090     9.7090 h1         1 1N1       0.043950
     57 H181        -0.3340    -0.8290     9.0390 h1         1 1N1       0.043950
     58 H182        -1.5380    -0.0840    10.1960 h1         1 1N1       0.043950
     59 HO1         -2.3520    -1.6320    12.6910 ho         1 1N1       0.397000
@<TRIPOS>BOND
     1     1     2 2   
     2     1    20 1   
     3     1    34 1   
     4     2     3 1   
     5     2    21 1   
     6     3    22 1   
     7     3    27 2   
     8     4    16 1   
     9     4    31 1   
    10     4    32 1   
    11     5     6 ar  
    12     5    25 ar  
    13     5    35 1   
    14     6     7 ar  
    15     6    36 1   
    16     7     8 1   
    17     7    23 ar  
    18     8    37 1   
    19     8    38 1   
    20     8    39 1   
    21     9    10 ar  
    22     9    18 1   
    23     9    29 ar  
    24    10    11 ar  
    25    10    40 1   
    26    11    28 ar  
    27    11    30 1   
    28    12    13 1   
    29    12    28 ar  
    30    12    29 ar  
    31    13    41 1   
    32    13    42 1   
    33    13    43 1   
    34    14    30 1   
    35    14    31 1   
    36    14    44 1   
    37    14    45 1   
    38    15    30 1   
    39    15    32 1   
    40    15    46 1   
    41    15    47 1   
    42    16    17 1   
    43    16    48 1   
    44    16    49 1   
    45    17    33 1   
    46    17    50 1   
    47    17    51 1   
    48    18    19 1   
    49    18    52 1   
    50    19    20 2   
    51    19    21 1   
    52    22    23 1   
    53    22    53 1   
    54    23    24 ar  
    55    24    25 ar  
    56    24    26 1   
    57    25    54 1   
    58    31    55 1   
    59    31    56 1   
    60    32    57 1   
    61    32    58 1   
    62    33    59 1   
@<TRIPOS>SUBSTRUCTURE
     1 1N1         1 TEMP              0 ****  ****    0 ROOT
