@<TRIPOS>MOLECULE
1N2
   28    29     1     0     0
SMALL
bcc


@<TRIPOS>ATOM
      1 OAA          0.1530     0.6140    -0.1970 o          1 1N2      -0.580500
      2 CAK          1.3680     0.4320    -0.0740 c          1 1N2       0.700000
      3 CAE          2.1940     0.6560     1.1890 c3         1 1N2      -0.162400
      4 CAF          3.6280     0.3040     0.7990 c3         1 1N2      -0.162400
      5 CAL          3.5530    -0.1200    -0.6650 c          1 1N2       0.700000
      6 OAB          4.4970    -0.5030    -1.3630 o          1 1N2      -0.580500
      7 NAO          2.2180    -0.0130    -1.1110 n          1 1N2      -0.515400
      8 CAI          1.7750    -0.2940    -2.4480 c3         1 1N2       0.078000
      9 CAJ          1.9920    -1.7740    -2.8610 c3         1 1N2       0.078000
     10 NAP          1.4100    -2.0930    -4.1330 n          1 1N2      -0.515400
     11 CAM          0.3880    -3.0520    -4.3170 c          1 1N2       0.700000
     12 OAC         -0.1250    -3.7070    -3.4060 o          1 1N2      -0.580500
     13 CAG          0.0470    -3.1420    -5.8010 c3         1 1N2      -0.162400
     14 CAH          0.9740    -2.1420    -6.4880 c3         1 1N2      -0.162400
     15 CAN          1.7930    -1.5150    -5.3640 c          1 1N2       0.700000
     16 OAD          2.6510    -0.6370    -5.4880 o          1 1N2      -0.580500
     17 H1           1.8060    -0.0010     2.0060 hc         1 1N2       0.090450
     18 H2           4.0350    -0.5400     1.4090 hc         1 1N2       0.090450
     19 H3           2.3520     0.3590    -3.1670 h1         1 1N2       0.080200
     20 H4           0.6800    -0.0310    -2.5090 h1         1 1N2       0.080200
     21 H5           3.1050    -1.9630    -2.9120 h1         1 1N2       0.080200
     22 H6           1.5370    -2.4620    -2.0920 h1         1 1N2       0.080200
     23 H7           0.2170    -4.1880    -6.1570 hc         1 1N2       0.090450
     24 H8           1.6640    -2.6380    -7.2150 hc         1 1N2       0.090450
     25 H9           2.0940     1.7210     1.5130 hc         1 1N2       0.090450
     26 H10          4.3180     1.1780     0.8970 hc         1 1N2       0.090450
     27 H11         -1.0310    -2.8880    -5.9490 hc         1 1N2       0.090450
     28 H12          0.4080    -1.3420    -7.0260 hc         1 1N2       0.090450
@<TRIPOS>BOND
     1     1     2 2   
     2     2     3 1   
     3     2     7 1   
     4     3     4 1   
     5     3    17 1   
     6     3    25 1   
     7     4     5 1   
     8     4    18 1   
     9     4    26 1   
    10     5     6 2   
    11     5     7 1   
    12     7     8 1   
    13     8     9 1   
    14     8    19 1   
    15     8    20 1   
    16     9    10 1   
    17     9    21 1   
    18     9    22 1   
    19    10    11 1   
    20    10    15 1   
    21    11    12 2   
    22    11    13 1   
    23    13    14 1   
    24    13    23 1   
    25    13    27 1   
    26    14    15 1   
    27    14    24 1   
    28    14    28 1   
    29    15    16 2   
@<TRIPOS>SUBSTRUCTURE
     1 1N2         1 TEMP              0 ****  ****    0 ROOT
