@<TRIPOS>MOLECULE
molecule
   28    29     1     0     0
SMALL
bcc


@<TRIPOS>ATOM
      1 OAA          0.0000     0.0000     0.0000 o          1 1N2      -0.575500
      2 CAK          1.2120     0.0000     0.0000 c          1 1N2       0.700500
      3 CAE          2.0890     0.0000     1.2330 c3         1 1N2      -0.176400
      4 CAF          3.5200     0.0000     0.6590 c3         1 1N2      -0.176400
      5 CAL          3.3020    -0.0020    -0.8390 c          1 1N2       0.700500
      6 OAB          4.1780    -0.0050    -1.6760 o          1 1N2      -0.575500
      7 NAO          1.9870    -0.0060    -1.0920 n          1 1N2      -0.491900
      8 CAI          1.4420    -0.0080    -2.4510 c3         1 1N2       0.080000
      9 CAJ          1.2580    -1.4520    -2.9250 c3         1 1N2       0.080000
     10 NAP          0.7120    -1.4540    -4.2840 n          1 1N2      -0.491900
     11 CAM          1.4880    -1.4510    -5.3760 c          1 1N2       0.700500
     12 OAC          2.7000    -1.4460    -5.3760 o          1 1N2      -0.575500
     13 CAG          0.6100    -1.4540    -6.6090 c3         1 1N2      -0.176400
     14 CAH         -0.8210    -1.4590    -6.0350 c3         1 1N2      -0.176400
     15 CAN         -0.6020    -1.4650    -4.5370 c          1 1N2       0.700500
     16 OAD         -1.4780    -1.4700    -3.7000 o          1 1N2      -0.575500
     17 H1           1.9170     0.8930     1.8220 hc         1 1N2       0.087700
     18 H2           4.0520     0.8930     0.9640 hc         1 1N2       0.087700
     19 H3           0.4850     0.4990    -2.4560 h1         1 1N2       0.081700
     20 H4           2.1260     0.5060    -3.1150 h1         1 1N2       0.081700
     21 H5           2.2150    -1.9590    -2.9190 h1         1 1N2       0.081700
     22 H6           0.5740    -1.9650    -2.2600 h1         1 1N2       0.081700
     23 H7           0.7800    -0.5600    -7.1980 hc         1 1N2       0.087700
     24 H8          -1.3550    -0.5660    -6.3380 hc         1 1N2       0.087700
     25 H9           1.9170    -0.8930     1.8220 hc         1 1N2       0.087700
     26 H10          4.0530    -0.8920     0.9660 hc         1 1N2       0.087700
     27 H11          0.7860    -2.3460    -7.1980 hc         1 1N2       0.087700
     28 H12         -1.3510    -2.3520    -6.3450 hc         1 1N2       0.087700
@<TRIPOS>BOND
     1    16    15 2
     2    15    14 1
     3    15    10 1
     4    14    13 1
     5    10     9 1
     6    10    11 1
     7     9     8 1
     8    13    11 1
     9    11    12 2
    10     6     5 2
    11     8     7 1
    12     5     7 1
    13     5     4 1
    14     7     2 1
    15     4     3 1
    16     2     1 2
    17     2     3 1
    18     3    17 1
    19     4    18 1
    20     8    19 1
    21     8    20 1
    22     9    21 1
    23     9    22 1
    24    13    23 1
    25    14    24 1
    26     3    25 1
    27     4    26 1
    28    13    27 1
    29    14    28 1
@<TRIPOS>SUBSTRUCTURE
     1 1N2         1 TEMP              0 ****  ****    0 ROOT
