@<TRIPOS>MOLECULE
1N2
   28    29     1     0     0
SMALL
bcc


@<TRIPOS>ATOM
      1 OAA          0.0000     0.0000     0.0000 o          1 1N2      -0.611000
      2 CAK          1.2120     0.0000     0.0000 c          1 1N2       0.624500
      3 CAE          2.0890     0.0000     1.2330 c3         1 1N2      -0.115900
      4 CAF          3.5200     0.0000     0.6590 c3         1 1N2      -0.115900
      5 CAL          3.3020    -0.0020    -0.8390 c          1 1N2       0.624500
      6 OAB          4.1780    -0.0050    -1.6760 o          1 1N2      -0.611000
      7 NAO          1.9870    -0.0060    -1.0920 n          1 1N2      -0.126400
      8 CAI          1.4420    -0.0080    -2.4510 c3         1 1N2       0.022000
      9 CAJ          1.2580    -1.4520    -2.9250 c3         1 1N2       0.022000
     10 NAP          0.7120    -1.4540    -4.2840 n          1 1N2      -0.126400
     11 CAM          1.4880    -1.4510    -5.3760 c          1 1N2       0.624500
     12 OAC          2.7000    -1.4460    -5.3760 o          1 1N2      -0.611000
     13 CAG          0.6100    -1.4540    -6.6090 c3         1 1N2      -0.115900
     14 CAH         -0.8210    -1.4590    -6.0350 c3         1 1N2      -0.115900
     15 CAN         -0.6020    -1.4650    -4.5370 c          1 1N2       0.624500
     16 OAD         -1.4780    -1.4700    -3.7000 o          1 1N2      -0.611000
     17 H1           1.9170     0.8930     1.8220 hc         1 1N2       0.051700
     18 H2           4.0520     0.8930     0.9640 hc         1 1N2       0.051700
     19 H3           0.4850     0.4990    -2.4560 h1         1 1N2       0.051700
     20 H4           2.1260     0.5060    -3.1150 h1         1 1N2       0.051700
     21 H5           2.2150    -1.9590    -2.9190 h1         1 1N2       0.051700
     22 H6           0.5740    -1.9650    -2.2600 h1         1 1N2       0.051700
     23 H7           0.7800    -0.5600    -7.1980 hc         1 1N2       0.051700
     24 H8          -1.3550    -0.5660    -6.3380 hc         1 1N2       0.051700
     25 H9           1.9170    -0.8930     1.8220 hc         1 1N2       0.051700
     26 H10          4.0530    -0.8920     0.9660 hc         1 1N2       0.051700
     27 H11          0.7860    -2.3460    -7.1980 hc         1 1N2       0.051700
     28 H12         -1.3510    -2.3520    -6.3450 hc         1 1N2       0.051700
@<TRIPOS>BOND
     1     1     2 2   
     2     2     3 1   
     3     2     7 1   
     4     3     4 1   
     5     3    17 1   
     6     3    25 1   
     7     4     5 1   
     8     4    18 1   
     9     4    26 1   
    10     5     6 2   
    11     5     7 1   
    12     7     8 1   
    13     8     9 1   
    14     8    19 1   
    15     8    20 1   
    16     9    10 1   
    17     9    21 1   
    18     9    22 1   
    19    10    11 1   
    20    10    15 1   
    21    11    12 2   
    22    11    13 1   
    23    13    14 1   
    24    13    23 1   
    25    13    27 1   
    26    14    15 1   
    27    14    24 1   
    28    14    28 1   
    29    15    16 2   
@<TRIPOS>SUBSTRUCTURE
     1 1N2         1 TEMP              0 ****  ****    0 ROOT
