@<TRIPOS>MOLECULE
1N3
   56    59     1     0     0
SMALL
bcc


@<TRIPOS>ATOM
      1 C1           0.0000     0.0000     0.0000 c3         1 1N3       0.243700
      2 O2           1.4290     0.0000     0.0000 os         1 1N3      -0.303900
      3 C3           2.0460     0.0000     1.2100 ca         1 1N3       0.172100
      4 C4           3.4330    -0.0010     1.2800 ca         1 1N3      -0.178000
      5 C5           4.0630    -0.0010     2.5060 ca         1 1N3      -0.033500
      6 C6           3.3040    -0.0010     3.6780 ca         1 1N3      -0.162900
      7 C7           1.9100     0.0000     3.6030 ca         1 1N3      -0.033500
      8 C8           1.2880     0.0050     2.3740 ca         1 1N3      -0.178000
      9 C9           3.9760    -0.0020     4.9950 cc         1 1N3       0.296400
     10 N10          3.3360    -0.0070     6.2070 na         1 1N3       0.173000
     11 C11          4.3090    -0.0070     7.1850 ca         1 1N3       0.193800
     12 C12          5.5390    -0.0010     6.5090 ca         1 1N3      -0.033900
     13 N13          5.2730    -0.0030     5.1810 nd         1 1N3      -0.510100
     14 C14          6.7270     0.0010     7.2610 ca         1 1N3       0.116600
     15 C15          6.6240    -0.0030     8.6480 ca         1 1N3      -0.141200
     16 C16          5.3710    -0.0090     9.2360 ca         1 1N3       0.435200
     17 N17          4.2700    -0.0100     8.5100 nb         1 1N3      -0.546000
     18 Br1          8.1810    -0.0020     9.7200 br         1 1N3      -0.111100
     19 N19          7.9700     0.0060     6.6360 nu         1 1N3      -0.472600
     20 C20          8.4860    -1.3600     6.4770 c3         1 1N3       0.172800
     21 C21          9.9040    -1.3070     5.9050 c3         1 1N3      -0.049400
     22 C22         10.4410    -2.7300     5.7400 c3         1 1N3       0.042000
     23 N23         11.7990    -2.6800     5.1910 ns         1 1N3      -0.146900
     24 C24         12.4750    -3.8220     4.9600 c          1 1N3       0.579100
     25 O25         11.9300    -4.8930     5.1220 o          1 1N3      -0.644100
     26 C26         13.9090    -3.7680     4.5010 cx         1 1N3      -0.317000
     27 C27         14.9480    -4.5140     5.3410 cx         1 1N3      -0.007900
     28 C28         14.8990    -2.9850     5.3650 cx         1 1N3      -0.007900
     29 C29         14.1160    -3.7370     2.9860 c3         1 1N3       0.018800
     30 N30         13.6490    -5.0010     2.4010 nz         1 1N3       0.080400
     31 H1          -0.3610    -0.0050    -1.0210 h1         1 1N3       0.001033
     32 H2          -0.3610     0.8870     0.5060 h1         1 1N3       0.001033
     33 H3          -0.3610    -0.8820     0.5150 h1         1 1N3       0.001033
     34 H4           4.0210    -0.0010     0.3700 ha         1 1N3       0.123000
     35 H5           5.1430     0.0550     2.5600 ha         1 1N3       0.110000
     36 H6           1.3190     0.0540     4.5100 ha         1 1N3       0.110000
     37 H7           0.2070     0.0140     2.3150 ha         1 1N3       0.123000
     38 H8           2.3550    -0.1350     6.3540 hn         1 1N3       0.140700
     39 H10          5.2940    -0.0120    10.3160 h4         1 1N3      -0.003900
     40 H11          8.6040     0.7660     6.7880 hn         1 1N3       0.296800
     41 H12          8.5050    -1.8540     7.4420 h1         1 1N3       0.019200
     42 H13          7.8440    -1.9130     5.8010 h1         1 1N3       0.019200
     43 H14          9.8850    -0.8150     4.9400 hc         1 1N3       0.023700
     44 H15         10.5460    -0.7550     6.5800 hc         1 1N3       0.023700
     45 H16         10.4600    -3.2220     6.7040 h1         1 1N3       0.039200
     46 H17          9.7990    -3.2820     5.0650 h1         1 1N3       0.039200
     47 H18         12.2180    -1.7980     4.9730 hn         1 1N3       0.180500
     48 H19         15.7730    -4.9470     4.7890 hc         1 1N3       0.064950
     49 H20         14.5660    -5.0080     6.2270 hc         1 1N3       0.064950
     50 H21         15.6950    -2.4830     4.8280 hc         1 1N3       0.064950
     51 H22         14.4870    -2.5450     6.2650 hc         1 1N3       0.064950
     52 H23         13.5550    -2.9140     2.5610 hx         1 1N3       0.078700
     53 H24         15.1700    -3.6070     2.7680 hx         1 1N3       0.078700
     54 H25         13.7560    -5.7380     3.0700 hn         1 1N3       0.229467
     55 H26         14.1880    -5.2110     1.5850 hn         1 1N3       0.229467
     56 H303        12.6840    -4.9160     2.1510 hn         1 1N3       0.229467
@<TRIPOS>BOND
     1     1     2 1   
     2     1    31 1   
     3     1    32 1   
     4     1    33 1   
     5     2     3 1   
     6     3     4 ar  
     7     3     8 ar  
     8     4     5 ar  
     9     4    34 1   
    10     5     6 ar  
    11     5    35 1   
    12     6     7 ar  
    13     6     9 1   
    14     7     8 ar  
    15     7    36 1   
    16     8    37 1   
    17     9    10 1   
    18     9    13 2   
    19    10    11 1   
    20    10    38 1   
    21    11    12 ar  
    22    11    17 ar  
    23    12    13 1   
    24    12    14 ar  
    25    14    15 ar  
    26    14    19 1   
    27    15    16 ar  
    28    15    18 1   
    29    16    17 ar  
    30    16    39 1   
    31    19    20 1   
    32    19    40 1   
    33    20    21 1   
    34    20    41 1   
    35    20    42 1   
    36    21    22 1   
    37    21    43 1   
    38    21    44 1   
    39    22    23 1   
    40    22    45 1   
    41    22    46 1   
    42    23    24 1   
    43    23    47 1   
    44    24    25 2   
    45    24    26 1   
    46    26    27 1   
    47    26    28 1   
    48    26    29 1   
    49    27    28 1   
    50    27    48 1   
    51    27    49 1   
    52    28    50 1   
    53    28    51 1   
    54    29    30 1   
    55    29    52 1   
    56    29    53 1   
    57    30    54 1   
    58    30    55 1   
    59    30    56 1   
@<TRIPOS>SUBSTRUCTURE
     1 1N3         1 TEMP              0 ****  ****    0 ROOT
