@<TRIPOS>MOLECULE
1N3
   57    60     1     0     0
SMALL
bcc


@<TRIPOS>ATOM
      1 C1          -0.0400    -3.2320     1.7750 c3         1 1N3       0.102700
      2 O2           0.6840    -3.7900     2.8780 os         1 1N3      -0.302900
      3 C3           1.0650    -2.9350     3.8700 ca         1 1N3       0.167100
      4 C4           0.5520    -1.6400     4.0510 ca         1 1N3      -0.205500
      5 C5           1.0050    -0.8620     5.1140 ca         1 1N3      -0.093500
      6 C6           1.9500    -1.3720     6.0130 ca         1 1N3      -0.245900
      7 C7           2.4590    -2.6720     5.8310 ca         1 1N3      -0.093500
      8 C8           2.0160    -3.4570     4.7790 ca         1 1N3      -0.205500
      9 C9           2.4880    -0.5140     7.0710 cc         1 1N3       0.488400
     10 N10          3.8740    -0.4400     7.3040 na         1 1N3      -0.338000
     11 C11          4.0560     0.4870     8.3400 ca         1 1N3       0.432800
     12 C12          2.7170     0.9410     8.7020 ca         1 1N3      -0.059900
     13 N13          1.7660     0.2830     7.9060 nd         1 1N3      -0.669100
     14 C14          2.6080     1.9320     9.7150 ca         1 1N3       0.153600
     15 C15          3.8000     2.3400    10.3300 ca         1 1N3      -0.180200
     16 C16          5.0510     1.7890     9.9110 ca         1 1N3       0.473200
     17 N17          5.2130     0.8950     8.9380 nb         1 1N3      -0.611000
     18 Br1          3.8220     3.6100    11.6940 br         1 1N3      -0.003100
     19 N19          1.3210     2.4370    10.0640 nu         1 1N3      -0.751600
     20 C20          0.8570     3.5220     9.1940 c3         1 1N3       0.135800
     21 C21         -0.6660     3.5490     9.0780 c3         1 1N3      -0.114400
     22 C22         -1.2170     2.2980     8.4090 c3         1 1N3       0.123800
     23 N23         -0.9480     1.0730     9.2310 ny         1 1N3      -0.679800
     24 C24         -1.0640    -0.1990     8.4790 c          1 1N3       0.611100
     25 O25         -1.3080    -0.1510     7.2750 o          1 1N3      -0.472100
     26 C26         -0.8770    -1.4730     9.2270 cx         1 1N3      -0.297000
     27 C27         -1.1760    -1.5820    10.7190 cx         1 1N3      -0.067400
     28 C28          0.2360    -1.6110    10.2580 cx         1 1N3      -0.067400
     29 C29         -1.2490    -2.6830     8.3990 c3         1 1N3       0.148800
     30 N30         -0.3880    -2.8720     7.2000 nz         1 1N3      -0.846600
     31 H1          -0.0980    -4.0910     1.0570 h1         1 1N3       0.070033
     32 H2           0.5200    -2.3760     1.3290 h1         1 1N3       0.070033
     33 H3          -1.0590    -2.9190     2.1060 h1         1 1N3       0.070033
     34 H4          -0.1650    -1.2160     3.3300 ha         1 1N3       0.182000
     35 H5           0.6300     0.1690     5.2330 ha         1 1N3       0.162500
     36 H6           3.2380    -3.0650     6.5060 ha         1 1N3       0.162500
     37 H7           2.4260    -4.4660     4.6040 ha         1 1N3       0.182000
     38 H8           4.5900    -0.8610     6.7630 hn         1 1N3       0.347700
     39 H10          5.9930     2.1190    10.4030 h4         1 1N3       0.078100
     40 H11          1.3070     2.7330    11.0280 hn         1 1N3       0.406800
     41 H12          1.2990     3.3860     8.1640 h1         1 1N3       0.087700
     42 H13          1.2000     4.5270     9.5770 h1         1 1N3       0.087700
     43 H14         -1.1420     3.7150    10.0800 hc         1 1N3       0.099200
     44 H15         -0.9490     4.4240     8.4280 hc         1 1N3       0.099200
     45 H16         -2.3290     2.3850     8.2530 hx         1 1N3       0.114200
     46 H17         -0.7200     2.1530     7.4040 hx         1 1N3       0.114200
     47 H18         -1.5910     1.0530    10.0290 hn         1 1N3       0.490800
     48 H19         -1.6550    -2.5150    11.0820 hc         1 1N3       0.116700
     49 H20         -1.5700    -0.7060    11.2680 hc         1 1N3       0.116700
     50 H21          0.7970    -2.5670    10.2900 hc         1 1N3       0.116700
     51 H22          0.9080    -0.7510    10.4460 hc         1 1N3       0.116700
     52 H23         -1.1680    -3.6140     9.0370 hx         1 1N3       0.130200
     53 H24         -2.3180    -2.5830     8.0400 hx         1 1N3       0.130200
     54 H25         -0.6470    -3.7440     6.7240 hn         1 1N3       0.475800
     55 H26          0.6090    -2.9130     7.4570 hn         1 1N3       0.475800
     56 H303        -0.5010    -2.0820     6.5380 hn         1 1N3       0.475800
     57 H232         0.0480     1.1760     9.6110 hn         1 1N3       0.490800
@<TRIPOS>BOND
     1     1     2 1   
     2     1    31 1   
     3     1    32 1   
     4     1    33 1   
     5     2     3 1   
     6     3     4 ar  
     7     3     8 ar  
     8     4     5 ar  
     9     4    34 1   
    10     5     6 ar  
    11     5    35 1   
    12     6     7 ar  
    13     6     9 1   
    14     7     8 ar  
    15     7    36 1   
    16     8    37 1   
    17     9    10 1   
    18     9    13 2   
    19    10    11 1   
    20    10    38 1   
    21    11    12 ar  
    22    11    17 ar  
    23    12    13 1   
    24    12    14 ar  
    25    14    15 ar  
    26    14    19 1   
    27    15    16 ar  
    28    15    18 1   
    29    16    17 ar  
    30    16    39 1   
    31    19    20 1   
    32    19    40 1   
    33    20    21 1   
    34    20    41 1   
    35    20    42 1   
    36    21    22 1   
    37    21    43 1   
    38    21    44 1   
    39    22    23 1   
    40    22    45 1   
    41    22    46 1   
    42    23    24 1   
    43    23    47 1   
    44    23    57 1   
    45    24    25 2   
    46    24    26 1   
    47    26    27 1   
    48    26    28 1   
    49    26    29 1   
    50    27    28 1   
    51    27    48 1   
    52    27    49 1   
    53    28    50 1   
    54    28    51 1   
    55    29    30 1   
    56    29    52 1   
    57    29    53 1   
    58    30    54 1   
    59    30    55 1   
    60    30    56 1   
@<TRIPOS>SUBSTRUCTURE
     1 1N3         1 TEMP              0 ****  ****    0 ROOT
