@<TRIPOS>MOLECULE
1N4
   27    27     1     0     0
SMALL
bcc


@<TRIPOS>ATOM
      1 CAA          0.2470     0.3620     0.0660 c3         1 1N4      -0.092100
      2 CAG          1.7340     0.3850     0.3050 c3         1 1N4      -0.088400
      3 CAH          2.1480    -0.7000     1.2860 c3         1 1N4      -0.010100
      4 CAK          3.5830    -0.6510     1.5860 cc         1 1N4      -0.187600
      5 CAF          4.6040    -1.5650     1.0930 cc         1 1N4       0.305200
      6 NAI          5.8330    -1.2070     1.5250 nd         1 1N4      -0.470800
      7 NAN          5.6780    -0.0280     2.1680 na         1 1N4       0.217300
      8 OAE          6.5630     0.3690     3.0670 oh         1 1N4      -0.442200
      9 CAL          4.2880     0.2920     2.3410 cd         1 1N4      -0.155600
     10 CA           3.8510     1.5010     3.0610 c3         1 1N4      -0.001200
     11 C            4.6070     2.7950     2.4390 c          1 1N4       0.946600
     12 O            3.9250     3.4770     1.6660 o          1 1N4      -0.751300
     13 OXT          5.7830     2.9290     2.8650 o          1 1N4      -0.751300
     14 N            4.2460     1.4130     4.5060 nz         1 1N4      -0.826600
     15 H1          -0.0360     1.1610    -0.6620 hc         1 1N4       0.033700
     16 H2          -0.3110     0.5390     1.0170 hc         1 1N4       0.033700
     17 H3          -0.0740    -0.6240    -0.3490 hc         1 1N4       0.033700
     18 H4           2.2760     0.2340    -0.6660 hc         1 1N4       0.060200
     19 H5           2.0450     1.3890     0.7010 hc         1 1N4       0.060200
     20 H6           1.5600    -0.5790     2.2380 hc         1 1N4       0.046200
     21 H7           1.8880    -1.7070     0.8620 hc         1 1N4       0.046200
     22 H8           4.4480    -2.4270     0.4410 h4         1 1N4       0.053100
     23 H9           6.9460     1.2110     2.7040 ho         1 1N4       0.485000
     24 H10          2.7390     1.6360     2.9810 hx         1 1N4       0.112700
     25 H12          3.7360     2.1140     5.0400 hn         1 1N4       0.448133
     26 H13          4.0870     0.4850     4.8890 hn         1 1N4       0.448133
     27 HN3          5.2610     1.6370     4.5350 hn         1 1N4       0.448133
@<TRIPOS>BOND
     1     1     2 1   
     2     1    15 1   
     3     1    16 1   
     4     1    17 1   
     5     2     3 1   
     6     2    18 1   
     7     2    19 1   
     8     3     4 1   
     9     3    20 1   
    10     3    21 1   
    11     4     5 1   
    12     4     9 2   
    13     5     6 2   
    14     5    22 1   
    15     6     7 1   
    16     7     8 1   
    17     7     9 1   
    18     8    23 1   
    19     9    10 1   
    20    10    11 1   
    21    10    14 1   
    22    10    24 1   
    23    11    12 1   
    24    11    13 1   
    25    14    25 1   
    26    14    26 1   
    27    14    27 1   
@<TRIPOS>SUBSTRUCTURE
     1 1N4         1 TEMP              0 ****  ****    0 ROOT
