@<TRIPOS>MOLECULE
1N4
   27    27     1     0     0
SMALL
bcc


@<TRIPOS>ATOM
      1 CAA          0.0000     0.0000     0.0000 c3         1 1N4       0.012900
      2 CAG          1.5300     0.0000     0.0000 c3         1 1N4      -0.066400
      3 CAH          2.0390     0.0000     1.4430 c3         1 1N4       0.077900
      4 CAK          3.5470    -0.0000     1.4420 cc         1 1N4      -0.261600
      5 CAF          4.3700    -1.1280     1.5350 cc         1 1N4       0.418200
      6 NAI          5.6150    -0.7280     1.5020 nd         1 1N4      -0.661800
      7 NAN          5.6250     0.6680     1.3870 na         1 1N4       0.592300
      8 OAE          6.7750     1.4900     1.3180 oh         1 1N4      -0.493200
      9 CAL          4.3430     1.0900     1.3470 cd         1 1N4      -0.246600
     10 CA           3.8820     2.5190     1.2220 c3         1 1N4      -0.097200
     11 C            4.0770     2.9880    -0.1960 c          1 1N4       0.954600
     12 O            5.0360     3.6650    -0.4820 o          1 1N4      -0.807800
     13 OXT          3.1860     2.6530    -1.1440 o          1 1N4      -0.807800
     14 N            4.6650     3.3670     2.1310 nz         1 1N4       0.070400
     15 H1          -0.3610    -0.9380     0.4050 hc         1 1N4      -0.002967
     16 H2          -0.3610     0.8190     0.6100 hc         1 1N4      -0.002967
     17 H3          -0.3610     0.1180    -1.0140 hc         1 1N4      -0.002967
     18 H4           1.8910    -0.8850    -0.5110 hc         1 1N4       0.049700
     19 H5           1.8910     0.8850    -0.5110 hc         1 1N4       0.049700
     20 H6           1.6780    -0.8840     1.9530 hc         1 1N4       0.006700
     21 H7           1.6780     0.8850     1.9530 hc         1 1N4       0.006700
     22 H8           4.0340    -2.1550     1.6200 h4         1 1N4       0.014100
     23 H9           7.5440     0.9490     1.2540 ho         1 1N4       0.451000
     24 H10          2.8320     2.5840     1.4820 hx         1 1N4       0.096700
     25 H12          4.7140     2.9340     3.0320 hn         1 1N4       0.216467
     26 H13          5.5900     3.4830     1.7660 hn         1 1N4       0.216467
     27 HN3          4.2250     4.2620     2.2140 hn         1 1N4       0.216467
@<TRIPOS>BOND
     1     1     2 1   
     2     1    15 1   
     3     1    16 1   
     4     1    17 1   
     5     2     3 1   
     6     2    18 1   
     7     2    19 1   
     8     3     4 1   
     9     3    20 1   
    10     3    21 1   
    11     4     5 1   
    12     4     9 2   
    13     5     6 2   
    14     5    22 1   
    15     6     7 1   
    16     7     8 1   
    17     7     9 1   
    18     8    23 1   
    19     9    10 1   
    20    10    11 1   
    21    10    14 1   
    22    10    24 1   
    23    11    12 1   
    24    11    13 1   
    25    14    25 1   
    26    14    26 1   
    27    14    27 1   
@<TRIPOS>SUBSTRUCTURE
     1 1N4         1 TEMP              0 ****  ****    0 ROOT
