@<TRIPOS>MOLECULE
1N5
   25    23     1     0     0
SMALL
bcc


@<TRIPOS>ATOM
      1 C1          0.1390    0.4060    0.3420 c2        1 1N5      0.353000
      2 C2          1.6930    0.5740    0.4480 c3        1 1N5     -0.058000
      3 C3          2.2650   -0.5510    1.3010 c3        1 1N5     -0.219000
      4 O4          3.8550    0.9060    2.4680 oh        1 1N5     -0.387000
      5 C4          3.7020   -0.3100    1.7350 c3        1 1N5      0.024000
      6 C5          4.2130   -1.4720    2.5850 c3        1 1N5     -0.185000
      7 C6          5.6990   -1.3870    2.8130 c3        1 1N5     -0.206000
      8 O2          2.2310    0.5500   -0.8630 oh        1 1N5     -0.303000
      9 O7          6.4180    2.0910    2.5370 oh        1 1N5     -0.157000
     10 O1A        -0.5430    1.4530    0.4950 o         1 1N5     -0.560000
     11 O1B        -0.3200   -0.7540    0.1750 o         1 1N5     -0.560000
     12 H2          2.2040   -1.5020    0.7110 hc        1 1N5      0.108500
     13 H3          1.9180    1.5690    0.9240 h1        1 1N5      0.054000
     14 H3A         1.6150   -0.6730    2.2050 hc        1 1N5      0.108500
     15 H7          5.1970    1.8320    4.1710 ha        1 1N5      0.013000
     16 H7A         5.6680    1.8030    1.9650 ho        1 1N5      0.186000
     17 H4          6.2550   -1.5340    1.8560 hc        1 1N5      0.067333
     18 H5          4.3700   -0.1750    0.8360 h1        1 1N5      0.087000
     19 H5A         3.9580   -2.4330    2.0670 hc        1 1N5      0.085500
     20 H6          3.6760   -1.4630    3.5690 hc        1 1N5      0.085500
     21 H6A         5.9680   -0.3800    3.2210 hc        1 1N5      0.067333
     22 HO2         3.1670    0.7630   -0.7720 ho        1 1N5      0.153000
     23 HO7         6.0310   -2.1670    3.5390 hc        1 1N5      0.067333
     24 C7          6.2080    2.1250    3.8010 c1        1 1N5     -0.048000
     25 HO4         3.0050    1.1190    2.8700 ho        1 1N5      0.222000
@<TRIPOS>BOND
     1    1    2 1   
     2    1   10 1   
     3    1   11 1   
     4    2    3 1   
     5    2    8 1   
     6    2   13 1   
     7    3    5 1   
     8    3   12 1   
     9    3   14 1   
    10    4    5 1   
    11    4   25 1   
    12    5    6 1   
    13    5   18 1   
    14    6    7 1   
    15    6   19 1   
    16    6   20 1   
    17    7   17 1   
    18    7   21 1   
    19    7   23 1   
    20    8   22 1   
    21    9   16 1   
    22    9   24 1   
    23   15   24 1   
@<TRIPOS>SUBSTRUCTURE
     1 1N5         1 TEMP              0 ****  ****    0 ROOT
