@<TRIPOS>MOLECULE
molecule
   25    24     1     0     0
SMALL
bcc


@<TRIPOS>ATOM
      1 C1           0.0000     0.0000     0.0000 c          1 1N5       0.868600
      2 C2           1.5070     0.0000     0.0000 c3         1 1N5       0.036100
      3 C3           2.0160     0.0000     1.4430 c3         1 1N5      -0.060400
      4 O4           3.9150     1.3980     0.9130 oh         1 1N5      -0.607800
      5 C4           3.5410     0.1260     1.4460 c3         1 1N5       0.140100
      6 C5           4.0610     0.0010     2.8790 c3         1 1N5      -0.096400
      7 C6           5.5910     0.0020     2.8680 c3         1 1N5      -0.082400
      8 O2           1.9840    -1.1660    -0.6740 oh         1 1N5      -0.626800
      9 O7           7.5400    -0.1220     4.2920 oh         1 1N5      -0.618800
     10 O1A         -0.6720     1.0530     0.4910 o          1 1N5      -0.842800
     11 O1B         -0.6040    -0.9470    -0.4470 o          1 1N5      -0.842800
     12 H2           1.8680     0.8850    -0.5100 h1         1 1N5       0.026700
     13 H3           1.5840     0.8370     1.9780 hc         1 1N5       0.065200
     14 H3A          1.7290    -0.9260     1.9270 hc         1 1N5       0.065200
     15 H7           5.7530    -1.0490     4.7360 h1         1 1N5       0.017200
     16 H7A          5.7530     0.7130     4.8910 h1         1 1N5       0.017200
     17 H4           3.9690    -0.6610     0.8360 h1         1 1N5       0.038700
     18 H5           3.7030     0.8380     3.4670 hc         1 1N5       0.048200
     19 H5A          3.7030    -0.9240     3.3140 hc         1 1N5       0.048200
     20 H6           5.9490     0.9280     2.4340 hc         1 1N5       0.051700
     21 H6A          5.9480    -0.8350     2.2800 hc         1 1N5       0.051700
     22 HO2          1.9200    -1.0390    -1.6060 ho         1 1N5       0.389000
     23 HO7          7.8610    -0.2050     5.1750 ho         1 1N5       0.391000
     24 C7           6.1100    -0.1230     4.3020 c3         1 1N5       0.137400
     25 HO4          4.5040     1.2750     0.1880 ho         1 1N5       0.388000
@<TRIPOS>BOND
     1    11     1 1   
     2     1     2 1   
     3     1    10 1   
     4     3     2 1   
     5     2     8 1   
     6     2    12 1   
     7     3     5 1   
     8     3    13 1   
     9     3    14 1   
    10     5     4 1   
    11     4    25 1   
    12    24     9 1   
    13    24     7 1   
    14    24    15 1   
    15    24    16 1   
    16     6     5 1   
    17     5    17 1   
    18     6     7 1   
    19     6    18 1   
    20     6    19 1   
    21     7    20 1   
    22     7    21 1   
    23     8    22 1   
    24     9    23 1   
@<TRIPOS>SUBSTRUCTURE
     1 1N5         1 TEMP              0 ****  ****    0 ROOT
