@<TRIPOS>MOLECULE
1N5
   25    24     1     0     0
SMALL
bcc


@<TRIPOS>ATOM
      1 C1           0.2510     0.0380    -0.1020 c          1 1N5       0.895600
      2 C2           1.7420    -0.3530     0.0810 c3         1 1N5       0.007100
      3 C3           2.1630    -0.1530     1.5320 c3         1 1N5      -0.123400
      4 O4           4.1830     1.2200     1.5910 oh         1 1N5      -0.632800
      5 C4           3.6820    -0.1160     1.6740 c3         1 1N5       0.140100
      6 C5           4.1620    -0.6720     3.0140 c3         1 1N5      -0.078400
      7 C6           4.6230    -2.1080     2.9050 c3         1 1N5      -0.107400
      8 O2           1.9910    -1.6980    -0.2960 oh         1 1N5      -0.653800
      9 O7           3.9510    -4.3920     2.4750 oh         1 1N5      -0.614800
     10 O1A         -0.5360    -0.8900    -0.4430 o          1 1N5      -0.830800
     11 O1B         -0.0730     1.2400     0.0920 o          1 1N5      -0.830800
     12 H2           2.3750     0.2860    -0.5940 h1         1 1N5       0.031700
     13 H3           1.7450    -0.9900     2.1480 hc         1 1N5       0.060700
     14 H3A          1.7170     0.8080     1.9010 hc         1 1N5       0.060700
     15 H7           2.7180    -3.0730     3.3780 h1         1 1N5       0.068700
     16 H7A          2.9910    -2.7460     1.5940 h1         1 1N5       0.068700
     17 H4           4.1490    -0.7040     0.8310 h1         1 1N5       0.042700
     18 H5           3.3410    -0.5900     3.7730 hc         1 1N5       0.045200
     19 H5A          5.0170    -0.0410     3.3780 hc         1 1N5       0.045200
     20 H6           5.0800    -2.4260     3.8780 hc         1 1N5       0.033700
     21 H6A          5.4210    -2.1920     2.1220 hc         1 1N5       0.033700
     22 HO2          1.1240    -2.1110    -0.4490 ho         1 1N5       0.429000
     23 HO7          4.4870    -4.4490     1.6770 ho         1 1N5       0.391000
     24 C7           3.4850    -3.0540     2.5590 c3         1 1N5       0.106400
     25 HO4          3.6160     1.6920     0.9680 ho         1 1N5       0.412000
@<TRIPOS>BOND
     1     1     2 1   
     2     1    10 1   
     3     1    11 1   
     4     2     3 1   
     5     2     8 1   
     6     2    12 1   
     7     3     5 1   
     8     3    13 1   
     9     3    14 1   
    10     4     5 1   
    11     4    25 1   
    12     5     6 1   
    13     5    17 1   
    14     6     7 1   
    15     6    18 1   
    16     6    19 1   
    17     7    20 1   
    18     7    21 1   
    19     7    24 1   
    20     8    22 1   
    21     9    23 1   
    22     9    24 1   
    23    15    24 1   
    24    16    24 1   
@<TRIPOS>SUBSTRUCTURE
     1 1N5         1 TEMP              0 ****  ****    0 ROOT
