@<TRIPOS>MOLECULE
molecule
   52    55     1     0     0
SMALL
bcc


@<TRIPOS>ATOM
      1 FAC          0.0000     0.0000     0.0000 f          1 1N6      -0.220633
      2 CBD          1.3990     0.0000     0.0000 c3         1 1N6       0.676200
      3 FAD          1.8650     0.0000     1.3180 f          1 1N6      -0.220633
      4 FAE          1.8660    -1.1410    -0.6600 f          1 1N6      -0.220633
      5 CAV          1.9010     1.2310    -0.7100 ca         1 1N6      -0.160300
      6 CAK          3.2600     1.4470    -0.8410 ca         1 1N6      -0.108000
      7 CAI          1.0020     2.1410    -1.2350 ca         1 1N6      -0.098000
      8 CAF          1.4580     3.2720    -1.8880 ca         1 1N6      -0.123000
      9 CAH          2.8150     3.4960    -2.0170 ca         1 1N6      -0.106000
     10 CAU          3.7220     2.5810    -1.4950 ca         1 1N6       0.140600
     11 NAR          5.0950     2.8010    -1.6300 nu         1 1N6      -0.735300
     12 C6           5.5900     4.0890    -1.6270 ca         1 1N6       0.821200
     13 N1           4.7950     5.1280    -1.3820 nb         1 1N6      -0.875000
     14 C5           6.9500     4.3410    -1.8780 ca         1 1N6      -0.512200
     15 CAY          7.9130     3.2810    -2.1540 c          1 1N6       0.735100
     16 OAB          7.5580     2.1150    -2.1750 o          1 1N6      -0.658500
     17 NAT          9.2020     3.6060    -2.3850 ns         1 1N6      -0.430100
     18 CAG          9.6400     4.8970    -2.3700 cc         1 1N6       0.037600
     19 CAJ          8.8200     5.9350    -2.1240 cd         1 1N6      -0.347800
     20 C4           7.4050     5.6820    -1.8630 ca         1 1N6       0.631100
     21 N3           6.5350     6.6560    -1.6130 nb         1 1N6      -0.865000
     22 C2           5.2630     6.3690    -1.3780 ca         1 1N6       0.996900
     23 NAS          4.3880     7.4050    -1.1170 nu         1 1N6      -0.897900
     24 CBC          4.8720     8.7880    -1.1040 c3         1 1N6       0.252500
     25 CAN          3.7130     9.7380    -1.4170 c3         1 1N6      -0.091400
     26 CAL          4.2190    11.1810    -1.4050 c3         1 1N6      -0.098400
     27 CBB          4.7880    11.5090    -0.0220 c3         1 1N6       0.093500
     28 NAA          5.2740    12.8960    -0.0100 nz         1 1N6      -0.809600
     29 CAM          5.9470    10.5610     0.2900 c3         1 1N6      -0.098400
     30 CAO          5.4410     9.1170     0.2770 c3         1 1N6      -0.091400
     31 H1           3.9640     0.7320    -0.4330 ha         1 1N6       0.152000
     32 H2          -0.0630     1.9670    -1.1350 ha         1 1N6       0.153000
     33 H3           0.7510     3.9830    -2.2960 ha         1 1N6       0.138000
     34 H4           3.1720     4.3820    -2.5280 ha         1 1N6       0.156000
     35 H5           5.7230     2.0250    -1.6960 hn         1 1N6       0.505800
     36 H6          10.6870     5.0940    -2.5630 h4         1 1N6       0.161000
     37 H7           9.2050     6.9480    -2.1210 ha         1 1N6       0.160000
     38 H9           3.4230     7.2110    -0.9340 hn         1 1N6       0.464800
     39 H10          5.6480     8.9100    -1.8510 h1         1 1N6       0.090700
     40 H11          2.9400     9.6210    -0.6670 hc         1 1N6       0.077950
     41 H12          3.3120     9.5050    -2.3960 hc         1 1N6       0.077950
     42 H13          3.3980    11.8530    -1.6240 hc         1 1N6       0.065950
     43 H14          4.9970    11.2960    -2.1500 hc         1 1N6       0.065950
     44 H15          4.0130    11.3870     0.7240 hx         1 1N6       0.117700
     45 H16          5.9900    13.0040    -0.7010 hn         1 1N6       0.454133
     46 H17          5.6470    13.1110     0.8930 hn         1 1N6       0.454133
     47 H19          6.3480    10.7930     1.2690 hc         1 1N6       0.065950
     48 H20          6.7200    10.6780    -0.4600 hc         1 1N6       0.065950
     49 H21          4.6640     9.0010     1.0230 hc         1 1N6       0.077950
     50 H22          6.2630     8.4460     0.4970 hc         1 1N6       0.077950
     51 H23          9.8590     2.8750    -2.5740 hn         1 1N6       0.346500
     52 HAA3         4.5160    13.5160    -0.2160 hn         1 1N6       0.454133
@<TRIPOS>BOND
     1    28    27 1   
     2    27    26 1   
     3    27    29 1   
     4     1     2 1   
     5     4     2 1   
     6    26    25 1   
     7    29    30 1   
     8     2     3 1   
     9     2     5 1   
    10    25    24 1   
    11     5     7 ar  
    12     5     6 ar  
    13     7     8 ar  
    14    30    24 1   
    15    24    23 1   
    16     6    10 ar  
    17     8     9 ar  
    18    23    22 1   
    19    10     9 ar  
    20    10    11 1   
    21    13    22 ar  
    22    13    12 ar  
    23    22    21 ar  
    24    11    12 1   
    25    12    14 ar  
    26    21    20 ar  
    27    14    20 ar  
    28    14    15 1   
    29    20    19 1   
    30    16    15 2   
    31    15    17 1   
    32    19    18 2   
    33    17    18 1   
    34     6    31 1   
    35     7    32 1   
    36     8    33 1   
    37     9    34 1   
    38    11    35 1   
    39    18    36 1   
    40    19    37 1   
    41    23    38 1   
    42    24    39 1   
    43    25    40 1   
    44    25    41 1   
    45    26    42 1   
    46    26    43 1   
    47    27    44 1   
    48    28    45 1   
    49    28    46 1   
    50    29    47 1   
    51    29    48 1   
    52    30    49 1   
    53    30    50 1   
    54    17    51 1   
    55    52    28 1   
@<TRIPOS>SUBSTRUCTURE
     1 1N6         1 TEMP              0 ****  ****    0 ROOT
