@<TRIPOS>MOLECULE
1N6
   52    55     1     0     0
SMALL
bcc


@<TRIPOS>ATOM
      1 FAC          0.2760     0.2440     0.8750 f          1 1N6      -0.253633
      2 CBD          1.4490     0.6040     0.2740 c3         1 1N6       0.691200
      3 FAD          2.2570     1.0070     1.3160 f          1 1N6      -0.253633
      4 FAE          1.1560     1.8210    -0.3180 f          1 1N6      -0.253633
      5 CAV          2.0430    -0.4200    -0.6790 ca         1 1N6      -0.182300
      6 CAK          3.3130    -0.9540    -0.4570 ca         1 1N6      -0.088000
      7 CAI          1.2540    -0.8310    -1.7560 ca         1 1N6      -0.091000
      8 CAF          1.7490    -1.7960    -2.6300 ca         1 1N6      -0.107000
      9 CAH          3.0060    -2.3540    -2.4240 ca         1 1N6      -0.114000
     10 CAU          3.8040    -1.9500    -1.3260 ca         1 1N6       0.160600
     11 NAR          5.0060    -2.6390    -1.0740 nu         1 1N6      -0.748300
     12 C6           6.2740    -2.0830    -1.0000 ca         1 1N6       0.787200
     13 N1           6.4050    -0.7230    -0.9480 nb         1 1N6      -0.852000
     14 C5           7.4300    -2.9530    -0.9430 ca         1 1N6      -0.482200
     15 CAY          7.3560    -4.4090    -1.0580 c          1 1N6       0.730100
     16 OAB          6.3190    -5.0800    -1.2640 o          1 1N6      -0.668500
     17 NAT          8.5530    -5.1320    -0.9390 ns         1 1N6      -0.443100
     18 CAG          9.7610    -4.5090    -0.7470 cc         1 1N6       0.045600
     19 CAJ          9.8800    -3.1520    -0.6640 cd         1 1N6      -0.350800
     20 C4           8.6990    -2.3200    -0.7740 ca         1 1N6       0.617100
     21 N3           8.8420    -0.9740    -0.7110 nb         1 1N6      -0.788000
     22 C2           7.6920    -0.2190    -0.8360 ca         1 1N6       0.932900
     23 NAS          7.9020     1.1710    -0.9090 nu         1 1N6      -0.837900
     24 CBC          6.9010     2.1560    -0.5710 c3         1 1N6       0.240500
     25 CAN          5.8340     2.3120    -1.6700 c3         1 1N6      -0.102400
     26 CAL          4.8420     3.4020    -1.3140 c3         1 1N6      -0.094900
     27 CBB          4.1870     3.0200     0.0140 c3         1 1N6       0.108500
     28 NAA          3.0080     3.8850     0.3540 nz         1 1N6      -0.838600
     29 CAM          5.2430     3.0310     1.1210 c3         1 1N6      -0.094900
     30 CAO          6.2570     1.9500     0.8120 c3         1 1N6      -0.102400
     31 H1           3.9150    -0.6180     0.4020 ha         1 1N6       0.158000
     32 H2           0.2500    -0.4030    -1.9020 ha         1 1N6       0.156000
     33 H3           1.1370    -2.1250    -3.4850 ha         1 1N6       0.161000
     34 H4           3.3710    -3.1310    -3.1180 ha         1 1N6       0.163000
     35 H5           4.9640    -3.6270    -1.2650 hn         1 1N6       0.492800
     36 H6          10.6420    -5.1760    -0.6660 h4         1 1N6       0.169000
     37 H7          10.8610    -2.6800    -0.5160 ha         1 1N6       0.178000
     38 H9           8.8390     1.4560    -0.7050 hn         1 1N6       0.450800
     39 H10          7.4610     3.1450    -0.5270 h1         1 1N6       0.057700
     40 H11          5.2870     1.3490    -1.8380 hc         1 1N6       0.084450
     41 H12          6.3370     2.5840    -2.6360 hc         1 1N6       0.084450
     42 H13          4.0780     3.4820    -2.1320 hc         1 1N6       0.066700
     43 H14          5.3610     4.3920    -1.2240 hc         1 1N6       0.066700
     44 H15          3.7660     1.9670    -0.0830 hx         1 1N6       0.120700
     45 H16          3.3080     4.8340     0.5850 hn         1 1N6       0.459800
     46 H17          2.3630     3.9120    -0.4440 hn         1 1N6       0.459800
     47 H19          5.7440     4.0340     1.1710 hc         1 1N6       0.066700
     48 H20          4.7780     2.8210     2.1200 hc         1 1N6       0.066700
     49 H21          5.7550     0.9490     0.8700 hc         1 1N6       0.084450
     50 H22          7.0550     1.9720     1.6010 hc         1 1N6       0.084450
     51 H23          8.5040    -6.1260    -1.0110 hn         1 1N6       0.349500
     52 HAA3         2.5150     3.4720     1.1560 hn         1 1N6       0.459800
@<TRIPOS>BOND
     1     1     2 1   
     2     2     3 1   
     3     2     4 1   
     4     2     5 1   
     5     5     6 ar  
     6     5     7 ar  
     7     6    10 ar  
     8     6    31 1   
     9     7     8 ar  
    10     7    32 1   
    11     8     9 ar  
    12     8    33 1   
    13     9    10 ar  
    14     9    34 1   
    15    10    11 1   
    16    11    12 1   
    17    11    35 1   
    18    12    13 ar  
    19    12    14 ar  
    20    13    22 ar  
    21    14    15 1   
    22    14    20 ar  
    23    15    16 2   
    24    15    17 1   
    25    17    18 1   
    26    17    51 1   
    27    18    19 2   
    28    18    36 1   
    29    19    20 1   
    30    19    37 1   
    31    20    21 ar  
    32    21    22 ar  
    33    22    23 1   
    34    23    24 1   
    35    23    38 1   
    36    24    25 1   
    37    24    30 1   
    38    24    39 1   
    39    25    26 1   
    40    25    40 1   
    41    25    41 1   
    42    26    27 1   
    43    26    42 1   
    44    26    43 1   
    45    27    28 1   
    46    27    29 1   
    47    27    44 1   
    48    28    45 1   
    49    28    46 1   
    50    28    52 1   
    51    29    30 1   
    52    29    47 1   
    53    29    48 1   
    54    30    49 1   
    55    30    50 1   
@<TRIPOS>SUBSTRUCTURE
     1 1N6         1 TEMP              0 ****  ****    0 ROOT
