@<TRIPOS>MOLECULE
1N8
   73    76     1     0     0
SMALL
bcc


@<TRIPOS>ATOM
      1 C22         -0.1440    -0.7470    -0.1520 ca         1 1N8      -0.141000
      2 C23          1.2090    -0.4550    -0.2910 ca         1 1N8      -0.099000
      3 C11          1.9600    -0.0990     0.8350 ca         1 1N8      -0.180600
      4 C14          3.4080     0.2260     0.7600 c          1 1N8       0.686700
      5 N3           4.1630    -0.4480    -0.2010 ns         1 1N8      -0.472100
      6 C15          5.5720    -0.5570    -0.2080 ca         1 1N8       0.030600
      7 C20          6.4530     0.5610    -0.3500 ca         1 1N8       0.066600
      8 C19          7.8410     0.3340    -0.4510 ca         1 1N8      -0.132000
      9 C18          8.3650    -0.9510    -0.4100 ca         1 1N8      -0.067000
     10 C17          7.5100    -2.0400    -0.2540 ca         1 1N8      -0.149300
     11 C16          6.1360    -1.8510    -0.1490 ca         1 1N8      -0.097000
     12 C21          8.0810    -3.4550    -0.1780 c3         1 1N8       0.690200
     13 F1           7.2520    -4.4240    -0.6880 f          1 1N8      -0.226633
     14 F2           8.3520    -3.8740     1.1000 f          1 1N8      -0.226633
     15 F3           9.2630    -3.6210    -0.8540 f          1 1N8      -0.226633
     16 O1           3.9210     1.0950     1.4980 o          1 1N8      -0.627100
     17 C12          1.3420    -0.0220     2.0880 ca         1 1N8      -0.058000
     18 C13         -0.0190    -0.3170     2.2300 cp         1 1N8      -0.036000
     19 C24         -0.7710    -0.6920     1.1010 ca         1 1N8      -0.015300
     20 C25         -2.2050    -1.0470     1.2150 c3         1 1N8      -0.069800
     21 N4           5.9340     1.8760    -0.3580 ns         1 1N8      -0.428100
     22 C26          6.5230     2.9540    -0.9510 c          1 1N8       0.648100
     23 C27          5.7570     4.2920    -0.7850 c3         1 1N8       0.011800
     24 N6           6.5850     5.4510    -1.2330 nx         1 1N8      -0.681400
     25 C28          7.5420     5.8690    -0.1510 c3         1 1N8       0.112800
     26 C29          5.7280     6.5800    -1.7200 c3         1 1N8       0.112800
     27 C30          8.6540     6.7710    -0.6420 c3         1 1N8      -0.130600
     28 C5           4.7160     7.0990    -0.7220 c3         1 1N8      -0.130600
     29 N1          -1.1650    -1.8600     8.0900 nb         1 1N8      -0.726000
     30 C2          -0.6230    -1.9470     6.8960 ca         1 1N8       0.491200
     31 C3          -0.8990    -1.0290     5.8250 ca         1 1N8      -0.331600
     32 C4          -1.8120     0.0280     6.1250 ca         1 1N8       0.476600
     33 N5          -2.3960     0.1590     7.3600 nb         1 1N8      -0.764000
     34 C6          -2.0810    -0.7870     8.2970 ca         1 1N8       0.888900
     35 C7          -0.3160    -1.1390     4.5470 ca         1 1N8      -0.049000
     36 C8          -0.6260    -0.2230     3.5610 cp         1 1N8      -0.093000
     37 C9          -1.5290     0.8370     3.8480 ca         1 1N8      -0.088000
     38 C10         -2.1070     0.9700     5.0830 ca         1 1N8      -0.192300
     39 C1          -3.4950     0.3610     9.9570 c3         1 1N8       0.204100
     40 O2           7.5760     2.9510    -1.6210 o          1 1N8      -0.605100
     41 N2          -2.7140    -0.7620     9.5360 nu         1 1N8      -0.841900
     42 H22         -0.7330    -1.0300    -1.0380 ha         1 1N8       0.147000
     43 H23          1.6640    -0.4930    -1.2920 ha         1 1N8       0.134000
     44 HN3          3.7040    -1.2160    -0.6490 hn         1 1N8       0.327500
     45 H19          8.5340     1.1840    -0.5820 ha         1 1N8       0.168000
     46 H18          9.4530    -1.1090    -0.5030 ha         1 1N8       0.170000
     47 H16          5.4850    -2.7350    -0.0310 ha         1 1N8       0.166000
     48 H12          1.9350     0.2790     2.9680 ha         1 1N8       0.161000
     49 H251        -2.7330    -0.3470     1.9100 hc         1 1N8       0.060700
     50 H252        -2.7120    -1.0130     0.2200 hc         1 1N8       0.060700
     51 H253        -2.3050    -2.0840     1.6270 hc         1 1N8       0.060700
     52 HN4          5.1090     2.0310     0.1930 hn         1 1N8       0.364500
     53 H271         5.4550     4.4540     0.2880 hx         1 1N8       0.123200
     54 H272         4.8270     4.2430    -1.4230 hx         1 1N8       0.123200
     55 H281         6.9480     6.3790     0.6590 hx         1 1N8       0.103200
     56 H282         7.9910     4.9180     0.2660 hx         1 1N8       0.103200
     57 H291         5.1940     6.2120    -2.6440 hx         1 1N8       0.103200
     58 H292         6.4280     7.4130    -2.0220 hx         1 1N8       0.103200
     59 H301         9.3630     6.9330     0.2110 hc         1 1N8       0.077533
     60 H302         9.2260     6.3050    -1.4820 hc         1 1N8       0.077533
     61 H303         8.2720     7.7680    -0.9680 hc         1 1N8       0.077533
     62 H51          4.0080     6.3000    -0.3920 hc         1 1N8       0.077533
     63 H52          4.1210     7.9050    -1.2260 hc         1 1N8       0.077533
     64 H53          5.2050     7.5440     0.1780 hc         1 1N8       0.077533
     65 H2           0.0860    -2.7810     6.7340 h4         1 1N8       0.029100
     66 H7           0.3840    -1.9660     4.3490 ha         1 1N8       0.137000
     67 H9          -1.7600     1.5620     3.0510 ha         1 1N8       0.136000
     68 H10         -2.8040     1.7960     5.2940 ha         1 1N8       0.157000
     69 HN2         -2.3330    -1.3490    10.2450 hn         1 1N8       0.446800
     70 H11         -4.3370     0.5380     9.2350 h1         1 1N8       0.049033
     71 H12A        -2.8790     1.3000    10.0190 h1         1 1N8       0.049033
     72 H13         -3.9220     0.1330    10.9700 h1         1 1N8       0.049033
     73 H61          7.1630     5.1230    -2.0320 hn         1 1N8       0.473800
@<TRIPOS>BOND
     1     1     2 ar  
     2     1    19 ar  
     3     1    42 1   
     4     2     3 ar  
     5     2    43 1   
     6     3     4 1   
     7     3    17 ar  
     8     4     5 1   
     9     4    16 2   
    10     5     6 1   
    11     5    44 1   
    12     6     7 ar  
    13     6    11 ar  
    14     7     8 ar  
    15     7    21 1   
    16     8     9 ar  
    17     8    45 1   
    18     9    10 ar  
    19     9    46 1   
    20    10    11 ar  
    21    10    12 1   
    22    11    47 1   
    23    12    13 1   
    24    12    14 1   
    25    12    15 1   
    26    17    18 ar  
    27    17    48 1   
    28    18    19 ar  
    29    18    36 1   
    30    19    20 1   
    31    20    49 1   
    32    20    50 1   
    33    20    51 1   
    34    21    22 1   
    35    21    52 1   
    36    22    23 1   
    37    22    40 2   
    38    23    24 1   
    39    23    53 1   
    40    23    54 1   
    41    24    25 1   
    42    24    26 1   
    43    24    73 1   
    44    25    27 1   
    45    25    55 1   
    46    25    56 1   
    47    26    28 1   
    48    26    57 1   
    49    26    58 1   
    50    27    59 1   
    51    27    60 1   
    52    27    61 1   
    53    28    62 1   
    54    28    63 1   
    55    28    64 1   
    56    29    30 ar  
    57    29    34 ar  
    58    30    31 ar  
    59    30    65 1   
    60    31    32 ar  
    61    31    35 ar  
    62    32    33 ar  
    63    32    38 ar  
    64    33    34 ar  
    65    34    41 1   
    66    35    36 ar  
    67    35    66 1   
    68    36    37 ar  
    69    37    38 ar  
    70    37    67 1   
    71    38    68 1   
    72    39    41 1   
    73    39    70 1   
    74    39    71 1   
    75    39    72 1   
    76    41    69 1   
@<TRIPOS>SUBSTRUCTURE
     1 1N8         1 TEMP              0 ****  ****    0 ROOT
