@<TRIPOS>MOLECULE
molecule
   72    75     1     0     0
SMALL
bcc


@<TRIPOS>ATOM
      1 C22          0.0000     0.0000     0.0000 ca         1 1N8      -0.139000
      2 C23          1.3940     0.0000     0.0000 ca         1 1N8      -0.057000
      3 C11          2.0920     0.0000     1.2080 ca         1 1N8      -0.159600
      4 C14          3.5460    -0.0010     1.2070 c          1 1N8       0.690700
      5 N3           4.1410    -0.5790     2.3390 ns         1 1N8      -0.504100
      6 C15          5.5200    -0.6960     2.6470 ca         1 1N8       0.014600
      7 C20          5.9460    -0.7010     3.9650 ca         1 1N8       0.071600
      8 C19          7.3080    -0.8170     4.2420 ca         1 1N8      -0.159000
      9 C18          8.2260    -0.9280     3.1980 ca         1 1N8      -0.070000
     10 C17          7.7810    -0.9210     1.8760 ca         1 1N8      -0.199300
     11 C16          6.4200    -0.8050     1.5980 ca         1 1N8      -0.062000
     12 C21          8.7640    -1.0390     0.7590 c3         1 1N8       0.705200
     13 F1          10.0590    -1.1470     1.1790 f          1 1N8      -0.235633
     14 F2           8.5560    -2.1290    -0.0390 f          1 1N8      -0.235633
     15 F3           8.7380     0.0380    -0.0790 f          1 1N8      -0.235633
     16 O1           4.1970     0.5070     0.2840 o          1 1N8      -0.569100
     17 C12          1.3940    -0.0000     2.4160 ca         1 1N8      -0.090000
     18 C13         -0.0020     0.0000     2.4190 cp         1 1N8      -0.051000
     19 C24         -0.6980     0.0000     1.2080 ca         1 1N8      -0.035300
     20 C25         -2.1920     0.0020     1.1690 c3         1 1N8      -0.053800
     21 N4           5.0460    -0.5930     5.0280 ns         1 1N8      -0.494100
     22 C26          5.3260    -0.5850     6.4030 c          1 1N8       0.677100
     23 C27          4.0540    -0.4490     7.2170 c3         1 1N8       0.087800
     24 N6           4.2160    -1.1010     8.4930 n3         1 1N8      -0.704600
     25 C28          4.5090    -2.5320     8.3260 c3         1 1N8       0.154800
     26 C29          3.0190    -0.9370     9.3300 c3         1 1N8       0.154800
     27 C30          4.6750    -3.2050     9.6450 c3         1 1N8      -0.097600
     28 C5           2.7380     0.5040     9.5910 c3         1 1N8      -0.097600
     29 N1          -2.7410    -2.3830     7.3710 nb         1 1N8      -0.731000
     30 C2          -2.0900    -2.3640     6.1930 ca         1 1N8       0.493200
     31 C3          -1.7210    -1.1970     5.5280 ca         1 1N8      -0.327600
     32 C4          -2.0680     0.0110     6.1560 ca         1 1N8       0.478600
     33 N5          -2.7190     0.0270     7.3320 nb         1 1N8      -0.762000
     34 C6          -3.0200    -1.1700     7.8760 ca         1 1N8       0.903900
     35 C7          -1.0410    -1.2020     4.2970 ca         1 1N8      -0.061000
     36 C8          -0.7020    -0.0000     3.6850 cp         1 1N8      -0.077000
     37 C9          -1.0400     1.2020     4.2970 ca         1 1N8      -0.076000
     38 C10         -1.7160     1.1990     5.5210 ca         1 1N8      -0.203300
     39 C1          -4.0660     0.0710     9.7720 c3         1 1N8       0.236100
     40 O2           6.4330    -0.6610     6.9270 o          1 1N8      -0.535100
     41 H22         -0.5420     0.0000    -0.9380 ha         1 1N8       0.145000
     42 H23          1.9360    -0.0000    -0.9380 ha         1 1N8       0.158000
     43 HN3          3.5100    -0.9570     3.0170 hn         1 1N8       0.305500
     44 H19          7.6530    -0.8220     5.2690 ha         1 1N8       0.183000
     45 H18          9.2830    -1.0180     3.4130 ha         1 1N8       0.156000
     46 H16          6.0690    -0.8000     0.5730 ha         1 1N8       0.177000
     47 H12          1.9360    -0.0000     3.3540 ha         1 1N8       0.126000
     48 H251        -2.5690     0.8190     1.7720 hc         1 1N8       0.052033
     49 H252        -2.5650    -0.9370     1.5590 hc         1 1N8       0.052033
     50 H253        -2.5260     0.1260     0.1450 hc         1 1N8       0.052033
     51 HN4          4.0800    -0.5120     4.7780 hn         1 1N8       0.309500
     52 H271         3.8390     0.6010     7.3750 h1         1 1N8       0.052700
     53 H272         3.2330    -0.9070     6.6810 h1         1 1N8       0.052700
     54 H281         5.4210    -2.6430     7.7530 h1         1 1N8       0.037450
     55 H282         3.6930    -3.0010     7.7890 h1         1 1N8       0.037450
     56 H291         2.1680    -1.3790     8.8250 h1         1 1N8       0.037450
     57 H292         3.1740    -1.4450    10.2750 h1         1 1N8       0.037450
     58 H301         5.3270    -4.0620     9.5330 hc         1 1N8       0.042867
     59 H302         5.1120    -2.5100    10.3530 hc         1 1N8       0.042867
     60 H303         3.7090    -3.5310    10.0090 hc         1 1N8       0.042867
     61 H51          2.2050     0.6050    10.5290 hc         1 1N8       0.042867
     62 H52          3.6720     1.0500     9.6460 hc         1 1N8       0.042867
     63 H53          2.1320     0.9050     8.7870 hc         1 1N8       0.042867
     64 H2          -1.8370    -3.3120     5.7350 h4         1 1N8       0.023100
     65 H7          -0.7470    -2.1420     3.8450 ha         1 1N8       0.138000
     66 H9          -0.7630     2.1410     3.8350 ha         1 1N8       0.145000
     67 H10         -1.9730     2.1430     5.9860 ha         1 1N8       0.152000
     68 HN2         -3.9450    -2.0150     9.5430 hn         1 1N8       0.449800
     69 H11         -4.5780    -0.1610    10.6980 h1         1 1N8       0.039700
     70 H12A        -4.7220     0.6480     9.1310 h1         1 1N8       0.039700
     71 H13         -3.1730     0.6450     9.9870 h1         1 1N8       0.039700
     72 N2          -3.7040    -1.1440     9.1110 nu         1 1N8      -0.897900
@<TRIPOS>BOND
     1     1     2 ar  
     2     1    19 ar  
     3     1    41 1   
     4     2     3 ar  
     5     2    42 1   
     6     3     4 1   
     7     3    17 ar  
     8     4    16 2   
     9     4     5 1   
    10     5     6 1   
    11     5    43 1   
    12     6    11 ar  
    13     6     7 ar  
    14     7     8 ar  
    15     7    21 1   
    16     8     9 ar  
    17     8    44 1   
    18     9    10 ar  
    19     9    45 1   
    20    10    12 1   
    21    10    11 ar  
    22    11    46 1   
    23    12    15 1   
    24    12    14 1   
    25    12    13 1   
    26    17    18 ar  
    27    17    47 1   
    28    18    19 ar  
    29    18    36 1   
    30    19    20 1   
    31    20    48 1   
    32    20    49 1   
    33    20    50 1   
    34    21    22 1   
    35    21    51 1   
    36    22    40 2   
    37    22    23 1   
    38    23    24 1   
    39    23    52 1   
    40    23    53 1   
    41    24    26 1   
    42    24    25 1   
    43    25    27 1   
    44    25    54 1   
    45    25    55 1   
    46    26    28 1   
    47    26    56 1   
    48    26    57 1   
    49    27    58 1   
    50    27    59 1   
    51    27    60 1   
    52    28    61 1   
    53    28    62 1   
    54    28    63 1   
    55    29    30 ar  
    56    29    34 ar  
    57    30    31 ar  
    58    30    64 1   
    59    31    35 ar  
    60    31    32 ar  
    61    32    33 ar  
    62    32    38 ar  
    63    33    34 ar  
    64    34    72 1   
    65    35    36 ar  
    66    35    65 1   
    67    36    37 ar  
    68    37    38 ar  
    69    37    66 1   
    70    38    67 1   
    71    72    39 1   
    72    72    68 1   
    73    39    69 1   
    74    39    70 1   
    75    39    71 1   
@<TRIPOS>SUBSTRUCTURE
     1 1N8         1 TEMP              0 ****  ****    0 ROOT
