@<TRIPOS>MOLECULE
1N9
   96   100     1     0     0
SMALL
bcc


@<TRIPOS>ATOM
      1 C13         -0.2710     0.5650     0.1550 ca         1 1N9       0.882900
      2 N1           1.0680     0.2600     0.0240 nb         1 1N9      -0.762000
      3 C19          1.7820     0.0920     1.1810 ca         1 1N9       0.600200
      4 C20          1.1720     0.2440     2.4570 ca         1 1N9      -0.413600
      5 C5          -0.1970     0.5530     2.4670 ca         1 1N9       0.468200
      6 N3          -0.9450     0.7050     1.3660 nb         1 1N9      -0.752000
      7 N4          -1.0330     0.8100    -1.0120 nu         1 1N9      -0.710300
      8 C9          -0.5670     0.4250    -2.2930 ca         1 1N9       0.192600
      9 N6           3.1420    -0.3140     1.0580 n          1 1N9      -0.335500
     10 C10          3.6050    -0.7380    -0.2260 ca         1 1N9      -0.011400
     11 C11          4.2760     0.1320    -1.1250 ca         1 1N9       0.171100
     12 C12          4.0700    -0.0030     2.0600 c          1 1N9       0.763100
     13 C14          3.3430    -2.0590    -0.6420 ca         1 1N9      -0.047000
     14 C15          3.7040    -2.5000    -1.9060 ca         1 1N9      -0.182000
     15 C16          4.3370    -1.6120    -2.7930 ca         1 1N9       0.171100
     16 C17          4.6480    -0.3070    -2.4020 ca         1 1N9      -0.270000
     17 C18          0.5870     1.0160    -2.8370 ca         1 1N9      -0.230500
     18 C21          1.0000     0.6690    -4.1280 ca         1 1N9       0.148100
     19 C22          0.2600    -0.2410    -4.9090 ca         1 1N9       0.032100
     20 C23         -0.8950    -0.8280    -4.3480 ca         1 1N9       0.148100
     21 C24         -1.3120    -0.5000    -3.0570 ca         1 1N9      -0.230500
     22 O1           5.3620    -0.3900     1.7240 os         1 1N9      -0.342200
     23 C25          6.3510    -0.2200     2.7010 ca         1 1N9       0.098100
     24 C26          6.8710    -1.3830     3.2980 ca         1 1N9      -0.057300
     25 C27          7.9670    -1.2490     4.1560 ca         1 1N9      -0.132500
     26 C28          8.5160     0.0060     4.4150 ca         1 1N9      -0.119000
     27 C29          7.9810     1.1470     3.8230 ca         1 1N9      -0.132500
     28 C30          6.8850     1.0540     2.9580 ca         1 1N9      -0.057300
     29 C31          6.2920     2.2660     2.3510 c3         1 1N9      -0.058800
     30 C32          6.2890    -2.7120     3.0090 c3         1 1N9      -0.058800
     31 O6          -1.5330    -1.7470    -5.1560 os         1 1N9      -0.315900
     32 C33         -2.7780    -2.2490    -4.6800 c3         1 1N9       0.107700
     33 O2           3.8630     0.5130     3.1650 o          1 1N9      -0.551000
     34 O3           4.6280    -2.1300    -4.0380 os         1 1N9      -0.323900
     35 O4           4.5020     1.4250    -0.6930 os         1 1N9      -0.327900
     36 C36          5.5370     2.1380    -1.3630 c3         1 1N9       0.111700
     37 C37          4.8990    -1.1750    -5.0620 c3         1 1N9       0.101700
     38 O5           0.6130    -0.4680    -6.2240 os         1 1N9      -0.316900
     39 C7           1.3110    -1.7150    -6.4100 c3         1 1N9       0.125400
     40 C8           1.6070    -1.8300    -7.8940 c3         1 1N9      -0.081400
     41 C35          2.6420    -0.7900    -8.3130 c3         1 1N9       0.167800
     42 O7           2.1420     1.1660    -4.7260 os         1 1N9      -0.315900
     43 C34          2.7840     2.2400    -4.0450 c3         1 1N9       0.107700
     44 C1           2.6780    -1.0420   -12.1160 c3         1 1N9       0.161300
     45 N2           3.7450    -0.1020   -12.4240 n3         1 1N9      -0.719600
     46 C3           4.7660    -0.1340   -11.3890 c3         1 1N9       0.161300
     47 C4           4.2400    -0.0340    -9.9430 c3         1 1N9       0.133800
     48 N5           3.1640    -0.9760    -9.6620 n3         1 1N9      -0.727600
     49 C6           2.1230    -0.9630   -10.6790 c3         1 1N9       0.133800
     50 H20          1.7310     0.1360     3.3950 ha         1 1N9       0.189000
     51 H5          -0.7340     0.6780     3.4270 h4         1 1N9       0.032100
     52 HN4         -2.0210     0.7090    -0.8850 hn         1 1N9       0.439800
     53 H14          2.8310    -2.7560     0.0420 ha         1 1N9       0.147000
     54 H15          3.4920    -3.5300    -2.2280 ha         1 1N9       0.155000
     55 H17          5.1630     0.3730    -3.0930 ha         1 1N9       0.146000
     56 H18          1.1710     1.7330    -2.2400 ha         1 1N9       0.152500
     57 H24         -2.2160    -0.9630    -2.6350 ha         1 1N9       0.152500
     58 H27          8.3940    -2.1440     4.6320 ha         1 1N9       0.136000
     59 H28          9.3770     0.0950     5.0950 ha         1 1N9       0.134000
     60 H29          8.4170     2.1340     4.0370 ha         1 1N9       0.136000
     61 H311         5.3490     2.5300     2.8970 hc         1 1N9       0.052367
     62 H312         6.9950     3.1320     2.4050 hc         1 1N9       0.052367
     63 H313         6.0260     2.0780     1.2790 hc         1 1N9       0.052367
     64 H321         6.6070    -3.0540     1.9920 hc         1 1N9       0.052367
     65 H322         5.1710    -2.6570     3.0210 hc         1 1N9       0.052367
     66 H323         6.6200    -3.4700     3.7600 hc         1 1N9       0.052367
     67 H331        -3.4980    -1.4170    -4.4940 h1         1 1N9       0.047200
     68 H332        -2.6280    -2.8550    -3.7530 h1         1 1N9       0.047200
     69 H333        -3.1320    -2.8970    -5.5220 h1         1 1N9       0.047200
     70 H361         5.2070     2.4250    -2.3920 h1         1 1N9       0.047033
     71 H362         6.4780     1.5380    -1.4030 h1         1 1N9       0.047033
     72 H363         5.6730     3.0530    -0.7300 h1         1 1N9       0.047033
     73 H371         4.8940    -1.7910    -5.9980 h1         1 1N9       0.052033
     74 H372         4.1020    -0.3900    -5.0990 h1         1 1N9       0.052033
     75 H373         5.9030    -0.7140    -4.9020 h1         1 1N9       0.052033
     76 H71          2.2530    -1.7030    -5.8000 h1         1 1N9       0.043200
     77 H72          0.6470    -2.5540    -6.0710 h1         1 1N9       0.043200
     78 H81          1.9810    -2.8670    -8.0970 hc         1 1N9       0.058700
     79 H82          0.6570    -1.6790    -8.4700 hc         1 1N9       0.058700
     80 H351         2.1800     0.2330    -8.1750 h1         1 1N9       0.037700
     81 H352         3.5220    -0.8590    -7.6080 h1         1 1N9       0.037700
     82 H341         3.6030     2.5380    -4.7480 h1         1 1N9       0.047200
     83 H342         2.0770     3.0880    -3.8800 h1         1 1N9       0.047200
     84 H343         3.2090     1.8830    -3.0720 h1         1 1N9       0.047200
     85 H11          3.0970    -2.0740   -12.2890 h1         1 1N9       0.056450
     86 H12          1.8230    -0.8850   -12.8290 h1         1 1N9       0.056450
     87 H31          5.4940     0.7060   -11.5530 h1         1 1N9       0.056450
     88 H32          5.3190    -1.1090   -11.5090 h1         1 1N9       0.056450
     89 H41          5.0890    -0.2710    -9.2440 h1         1 1N9       0.033700
     90 H42          3.9220     1.0330    -9.7460 h1         1 1N9       0.033700
     91 H61          1.4660    -0.0480   -10.5930 h1         1 1N9       0.033700
     92 H62          1.4740    -1.8680   -10.5110 h1         1 1N9       0.033700
     93 H21          2.7520     1.7320   -11.8660 h1         1 1N9       0.031033
     94 H22          4.1460     1.8640   -13.0320 h1         1 1N9       0.031033
     95 H23          2.5560     1.1710   -13.5890 h1         1 1N9       0.031033
     96 C2           3.2720     1.2300   -12.7280 c3         1 1N9       0.148100
@<TRIPOS>BOND
     1     1     2 ar  
     2     1     6 ar  
     3     1     7 1   
     4     2     3 ar  
     5     3     4 ar  
     6     3     9 1   
     7     4     5 ar  
     8     4    50 1   
     9     5     6 ar  
    10     5    51 1   
    11     7     8 1   
    12     7    52 1   
    13     8    17 ar  
    14     8    21 ar  
    15     9    10 1   
    16     9    12 1   
    17    10    11 ar  
    18    10    13 ar  
    19    11    16 ar  
    20    11    35 1   
    21    12    22 1   
    22    12    33 2   
    23    13    14 ar  
    24    13    53 1   
    25    14    15 ar  
    26    14    54 1   
    27    15    16 ar  
    28    15    34 1   
    29    16    55 1   
    30    17    18 ar  
    31    17    56 1   
    32    18    19 ar  
    33    18    42 1   
    34    19    20 ar  
    35    19    38 1   
    36    20    21 ar  
    37    20    31 1   
    38    21    57 1   
    39    22    23 1   
    40    23    24 ar  
    41    23    28 ar  
    42    24    25 ar  
    43    24    30 1   
    44    25    26 ar  
    45    25    58 1   
    46    26    27 ar  
    47    26    59 1   
    48    27    28 ar  
    49    27    60 1   
    50    28    29 1   
    51    29    61 1   
    52    29    62 1   
    53    29    63 1   
    54    30    64 1   
    55    30    65 1   
    56    30    66 1   
    57    31    32 1   
    58    32    67 1   
    59    32    68 1   
    60    32    69 1   
    61    34    37 1   
    62    35    36 1   
    63    36    70 1   
    64    36    71 1   
    65    36    72 1   
    66    37    73 1   
    67    37    74 1   
    68    37    75 1   
    69    38    39 1   
    70    39    40 1   
    71    39    76 1   
    72    39    77 1   
    73    40    41 1   
    74    40    78 1   
    75    40    79 1   
    76    41    48 1   
    77    41    80 1   
    78    41    81 1   
    79    42    43 1   
    80    43    82 1   
    81    43    83 1   
    82    43    84 1   
    83    44    45 1   
    84    44    49 1   
    85    44    85 1   
    86    44    86 1   
    87    45    46 1   
    88    45    96 1   
    89    46    47 1   
    90    46    87 1   
    91    46    88 1   
    92    47    48 1   
    93    47    89 1   
    94    47    90 1   
    95    48    49 1   
    96    49    91 1   
    97    49    92 1   
    98    93    96 1   
    99    94    96 1   
   100    95    96 1   
@<TRIPOS>SUBSTRUCTURE
     1 1N9         1 TEMP              0 ****  ****    0 ROOT
