@<TRIPOS>MOLECULE
molecule
   96   100     1     0     0
SMALL
bcc


@<TRIPOS>ATOM
      1 C13          0.0000     0.0000     0.0000 ca         1 1N9       0.930900
      2 N1           1.3480     0.0000     0.0000 nb         1 1N9      -0.753000
      3 C19          1.9210     0.0000     1.2220 ca         1 1N9       0.627200
      4 C20          1.2060    -0.0020     2.4030 ca         1 1N9      -0.467600
      5 C5          -0.1670    -0.0030     2.2700 ca         1 1N9       0.490200
      6 N3          -0.8060    -0.0020     1.0820 nb         1 1N9      -0.772000
      7 N4          -0.6330     0.0020    -1.2580 nu         1 1N9      -0.760300
      8 C9          -0.1330     0.0030    -2.5780 ca         1 1N9       0.181600
      9 N6           3.3180    -0.0000     1.3070 n          1 1N9      -0.386500
     10 C10          3.9500    -0.0020     2.6240 ca         1 1N9      -0.007400
     11 C11          4.2320     1.1970     3.2090 ca         1 1N9       0.163100
     12 C12          4.1760     0.0400     0.1580 c          1 1N9       0.753100
     13 C14          4.2180    -1.2190     3.1810 ca         1 1N9      -0.065000
     14 C15          4.8240    -1.2360     4.4380 ca         1 1N9      -0.226000
     15 C16          5.1330    -0.0380     5.0790 ca         1 1N9       0.157100
     16 C17          4.8380     1.1800     4.4650 ca         1 1N9      -0.178000
     17 C18         -0.8660     0.6070    -3.5990 ca         1 1N9      -0.168500
     18 C21         -0.3730     0.6080    -4.9040 ca         1 1N9       0.120600
     19 C22          0.8500     0.0050    -5.1810 ca         1 1N9       0.058100
     20 C23          1.5850    -0.5990    -4.1660 ca         1 1N9       0.120600
     21 C24          1.0920    -0.6010    -2.8610 ca         1 1N9      -0.168500
     22 O1           5.5260     0.0970     0.5330 os         1 1N9      -0.342200
     23 C25          6.4210     0.1380    -0.5410 ca         1 1N9       0.100100
     24 C26          6.7930     1.3650    -1.0470 ca         1 1N9      -0.062800
     25 C27          7.6870     1.4060    -2.1160 ca         1 1N9      -0.129500
     26 C28          8.1860     0.2210    -2.6540 ca         1 1N9      -0.118000
     27 C29          7.7920    -1.0070    -2.1220 ca         1 1N9      -0.129500
     28 C30          6.8980    -1.0480    -1.0520 ca         1 1N9      -0.062800
     29 C31          6.4880    -2.3730    -0.4970 c3         1 1N9      -0.047800
     30 C32          6.2700     2.6460    -0.4850 c3         1 1N9      -0.047800
     31 O6           2.7830    -1.1920    -4.4290 os         1 1N9      -0.339400
     32 C33          2.7590    -2.5740    -4.7790 c3         1 1N9       0.140700
     33 O2           3.8110     0.0470    -1.0180 o          1 1N9      -0.479000
     34 O3           5.7240    -0.0550     6.3060 os         1 1N9      -0.322900
     35 O4           3.9530     2.3960     2.6250 os         1 1N9      -0.340900
     36 C36          2.6750     2.9680     2.8970 c3         1 1N9       0.135700
     37 C37          5.9980    -1.3340     6.8750 c3         1 1N9       0.127700
     38 O5           1.3350     0.0060    -6.4620 os         1 1N9      -0.355900
     39 C7           2.1540     1.1050    -6.8380 c3         1 1N9       0.151400
     40 C8           2.5650     0.9360    -8.2950 c3         1 1N9      -0.081400
     41 C35          3.4650     2.0610    -8.7880 c3         1 1N9       0.167800
     42 O7          -1.0980     1.2020    -5.8930 os         1 1N9      -0.339400
     43 C34         -2.0370     0.3830    -6.5880 c3         1 1N9       0.140700
     44 C1           6.8040     0.9990    -7.3850 c3         1 1N9       0.160800
     45 N2           7.6000     2.1510    -7.8280 n3         1 1N9      -0.729600
     46 C3           6.8240     3.3900    -7.6960 c3         1 1N9       0.160800
     47 C4           5.5110     3.2990    -8.4820 c3         1 1N9       0.161800
     48 N5           4.7170     2.1480    -8.0380 n3         1 1N9      -0.726600
     49 C6           5.4920     0.9080    -8.1700 c3         1 1N9       0.161800
     50 H20          1.6920    -0.0020     3.3710 ha         1 1N9       0.162000
     51 H5          -0.7670    -0.0040     3.1720 h4         1 1N9       0.023100
     52 HN4         -1.6320     0.0030    -1.2060 hn         1 1N9       0.442800
     53 H14          3.9700    -2.1390     2.6660 ha         1 1N9       0.154000
     54 H15          5.0540    -2.1810     4.9150 ha         1 1N9       0.143000
     55 H17          5.0780     2.1110     4.9640 ha         1 1N9       0.161000
     56 H18         -1.8170     1.0750    -3.3790 ha         1 1N9       0.163000
     57 H24          1.6610    -1.0700    -2.0670 ha         1 1N9       0.163000
     58 H27          7.9930     2.3600    -2.5290 ha         1 1N9       0.134000
     59 H28          8.8810     0.2530    -3.4850 ha         1 1N9       0.130000
     60 H29          8.1800    -1.9290    -2.5400 ha         1 1N9       0.134000
     61 H311         5.4190    -2.4990    -0.6160 hc         1 1N9       0.049700
     62 H312         6.7420    -2.4170     0.5550 hc         1 1N9       0.049700
     63 H313         7.0060    -3.1620    -1.0270 hc         1 1N9       0.049700
     64 H321         5.2180     2.7420    -0.7230 hc         1 1N9       0.049700
     65 H322         6.3990     2.6470     0.5910 hc         1 1N9       0.049700
     66 H323         6.8150     3.4780    -0.9140 hc         1 1N9       0.049700
     67 H331         1.9550    -2.7560    -5.4810 h1         1 1N9       0.034200
     68 H332         3.7040    -2.8480    -5.2330 h1         1 1N9       0.034200
     69 H333         2.6020    -3.1700    -3.8870 h1         1 1N9       0.034200
     70 H361         2.0570     2.9090     2.0100 h1         1 1N9       0.040700
     71 H362         2.2010     2.4240     3.7050 h1         1 1N9       0.040700
     72 H363         2.7970     4.0050     3.1840 h1         1 1N9       0.040700
     73 H371         5.0750    -1.8940     6.9670 h1         1 1N9       0.044367
     74 H372         6.4420    -1.2060     7.8550 h1         1 1N9       0.044367
     75 H373         6.6860    -1.8740     6.2360 h1         1 1N9       0.044367
     76 H71          3.0380     1.1300    -6.2110 h1         1 1N9       0.046200
     77 H72          1.6000     2.0280    -6.7210 h1         1 1N9       0.046200
     78 H81          1.6720     0.9080    -8.9080 hc         1 1N9       0.049700
     79 H82          3.0920    -0.0050    -8.4020 hc         1 1N9       0.049700
     80 H351         3.6940     1.8920    -9.8340 h1         1 1N9       0.034200
     81 H352         2.9340     3.0000    -8.6940 h1         1 1N9       0.034200
     82 H341        -1.7360    -0.6550    -6.5140 h1         1 1N9       0.034200
     83 H342        -2.0700     0.6760    -7.6310 h1         1 1N9       0.034200
     84 H343        -3.0190     0.5070    -6.1480 h1         1 1N9       0.034200
     85 H11          7.3750     0.0920    -7.5430 h1         1 1N9       0.040700
     86 H12          6.5800     1.1060    -6.3310 h1         1 1N9       0.040700
     87 H31          6.6000     3.5590    -6.6490 h1         1 1N9       0.040700
     88 H32          7.4090     4.2180    -8.0780 h1         1 1N9       0.040700
     89 H41          5.7360     3.1900    -9.5360 h1         1 1N9       0.040450
     90 H42          4.9400     4.2060    -8.3260 h1         1 1N9       0.040450
     91 H61          4.9060     0.0810    -7.7880 h1         1 1N9       0.040450
     92 H62          5.7150     0.7390    -9.2170 h1         1 1N9       0.040450
     93 H21          9.3200     1.2640    -7.0410 h1         1 1N9       0.030700
     94 H22          9.5140     2.9450    -7.5580 h1         1 1N9       0.030700
     95 H23          8.6400     2.5730    -6.0650 h1         1 1N9       0.030700
     96 C2           8.8490     2.2390    -7.0740 c3         1 1N9       0.153100
@<TRIPOS>BOND
     1     1     6 ar  
     2     1     7 1   
     3     1     2 ar  
     4     2     3 ar  
     5     3     4 ar  
     6     3     9 1   
     7     4     5 ar  
     8     4    50 1   
     9     5     6 ar  
    10     5    51 1   
    11     7     8 1   
    12     7    52 1   
    13     8    21 ar  
    14     8    17 ar  
    15     9    12 1   
    16     9    10 1   
    17    10    11 ar  
    18    10    13 ar  
    19    11    35 1   
    20    11    16 ar  
    21    12    33 2   
    22    12    22 1   
    23    13    14 ar  
    24    13    53 1   
    25    14    15 ar  
    26    14    54 1   
    27    15    16 ar  
    28    15    34 1   
    29    16    55 1   
    30    17    18 ar  
    31    17    56 1   
    32    18    19 ar  
    33    18    42 1   
    34    19    20 ar  
    35    19    38 1   
    36    20    21 ar  
    37    20    31 1   
    38    21    57 1   
    39    22    23 1   
    40    23    28 ar  
    41    23    24 ar  
    42    24    30 1   
    43    24    25 ar  
    44    25    26 ar  
    45    25    58 1   
    46    26    27 ar  
    47    26    59 1   
    48    27    28 ar  
    49    27    60 1   
    50    28    29 1   
    51    29    61 1   
    52    29    62 1   
    53    29    63 1   
    54    30    64 1   
    55    30    65 1   
    56    30    66 1   
    57    31    32 1   
    58    32    67 1   
    59    32    68 1   
    60    32    69 1   
    61    34    37 1   
    62    35    36 1   
    63    36    70 1   
    64    36    71 1   
    65    36    72 1   
    66    37    73 1   
    67    37    74 1   
    68    37    75 1   
    69    38    39 1   
    70    39    40 1   
    71    39    76 1   
    72    39    77 1   
    73    40    41 1   
    74    40    78 1   
    75    40    79 1   
    76    41    48 1   
    77    41    80 1   
    78    41    81 1   
    79    42    43 1   
    80    43    82 1   
    81    43    83 1   
    82    43    84 1   
    83    44    45 1   
    84    44    49 1   
    85    44    85 1   
    86    44    86 1   
    87    45    96 1   
    88    45    46 1   
    89    46    47 1   
    90    46    87 1   
    91    46    88 1   
    92    47    48 1   
    93    47    89 1   
    94    47    90 1   
    95    48    49 1   
    96    49    91 1   
    97    49    92 1   
    98    96    93 1   
    99    96    94 1   
   100    96    95 1   
@<TRIPOS>SUBSTRUCTURE
     1 1N9         1 TEMP              0 ****  ****    0 ROOT
