@<TRIPOS>MOLECULE
1NB
   28    28     1     0     0
SMALL
bcc


@<TRIPOS>ATOM
      1 C7           1.5460    -0.0040     0.0030 c3         1 1NB      -0.177700
      2 C8           0.0240    -0.0080     0.0570 c3         1 1NB      -0.062700
      3 C9          -0.5440     1.2540     0.7040 c3         1 1NB      -0.076400
      4 O4          -0.9250    -1.4390    -1.5970 oh         1 1NB      -0.605800
      5 C26         -1.8280     1.6050    -0.0340 c3         1 1NB      -0.075400
      6 C29         -0.6030    -0.0780    -1.3490 c3         1 1NB       0.135100
      7 C27          2.1300    -0.1460     1.4050 c3         1 1NB      -0.040200
      8 C28         -1.8440     0.8210    -1.3370 c3         1 1NB      -0.113400
      9 C19          4.2000     0.7340     2.4530 c2         1 1NB      -0.220000
     10 C30          2.0340    -1.1400    -0.8660 c          1 1NB       0.568900
     11 H7           1.9030     0.9680    -0.4410 hc         1 1NB       0.079700
     12 H8          -0.3150    -0.9120     0.6350 hc         1 1NB       0.075700
     13 H91         -0.7410     1.0820     1.7910 hc         1 1NB       0.047700
     14 H92          0.1900     2.0970     0.6260 hc         1 1NB       0.047700
     15 H17          4.1430    -0.1890     0.5360 ha         1 1NB       0.140000
     16 HO4         -1.3950    -1.4660    -2.4390 ho         1 1NB       0.404000
     17 H261        -2.7190     1.3360     0.5890 hc         1 1NB       0.045700
     18 H262        -1.8810     2.7050    -0.2300 hc         1 1NB       0.045700
     19 H29          0.1290     0.2710    -2.1300 h1         1 1NB       0.041700
     20 H271         1.5800     0.5480     2.0960 hc         1 1NB       0.052700
     21 H272         1.9540    -1.1930     1.7780 hc         1 1NB       0.052700
     22 H281        -1.8290     1.5100    -2.2170 hc         1 1NB       0.050200
     23 H282        -2.7700     0.1960    -1.4100 hc         1 1NB       0.050200
     24 H191         5.2820     0.9180     2.4540 ha         1 1NB       0.111500
     25 H192         3.6710     1.0750     3.3520 ha         1 1NB       0.111500
     26 H30          1.3770    -2.0390    -0.8850 h4         1 1NB       0.020200
     27 C17          3.5860     0.1390     1.4330 c2         1 1NB      -0.174200
     28 O5           3.0770    -1.0790    -1.5170 o          1 1NB      -0.535100
@<TRIPOS>BOND
     1     1     2 1   
     2     1     7 1   
     3     1    10 1   
     4     1    11 1   
     5     2     3 1   
     6     2     6 1   
     7     2    12 1   
     8     3     5 1   
     9     3    13 1   
    10     3    14 1   
    11     4     6 1   
    12     4    16 1   
    13     5     8 1   
    14     5    17 1   
    15     5    18 1   
    16     6     8 1   
    17     6    19 1   
    18     7    20 1   
    19     7    21 1   
    20     7    27 1   
    21     8    22 1   
    22     8    23 1   
    23     9    24 1   
    24     9    25 1   
    25     9    27 2   
    26    10    26 1   
    27    10    28 2   
    28    15    27 1   
@<TRIPOS>SUBSTRUCTURE
     1 1NB         1 TEMP              0 ****  ****    0 ROOT
