@<TRIPOS>MOLECULE
1NB
   28    23     1     0     0
SMALL
bcc


@<TRIPOS>ATOM
      1 C7          0.8490   -1.8020   -0.1580 c1        1 1NB     -0.131000
      2 C8          0.3300   -2.0270    1.1390 c3        1 1NB     -0.221000
      3 C9         -1.1390    0.9860    0.6570 c1        1 1NB      0.189000
      4 O4          0.6820    0.9560   -2.9410 oh        1 1NB     -0.141000
      5 C26        -1.7890    1.4150   -0.4020 c2        1 1NB     -0.452000
      6 C29         0.1880    1.4620   -1.8680 c1        1 1NB      0.009000
      7 C27         0.9250    0.6440    3.5090 c3        1 1NB     -0.279000
      8 C28        -1.2740    1.7240   -1.7520 c3        1 1NB     -0.186000
      9 C19         3.5390    1.5050   -0.9880 c2        1 1NB     -0.580000
     10 C30         2.0690   -1.8840   -0.8350 c2        1 1NB      0.158000
     11 H7          1.2650   -0.3960    3.3080 hc        1 1NB      0.069250
     12 H8          1.0670   -2.3600    1.9150 hc        1 1NB      0.132000
     13 H91         1.2400    0.5950    0.8530 ha        1 1NB      0.009000
     14 H92         1.1260    0.6850    0.1870 ha        1 1NB      0.009000
     15 H17         1.7690    1.3480    3.3380 hc        1 1NB      0.069250
     16 HO4         0.0500    0.7150   -3.6560 ho        1 1NB      0.170000
     17 H261       -0.1880   -1.0870    1.5000 hc        1 1NB      0.132000
     18 H262       -2.8830    1.5770   -0.2830 ha        1 1NB      0.190000
     19 H29        -1.8800    1.1610   -2.5190 hc        1 1NB      0.108500
     20 H271        0.5820    0.7250    4.5630 hc        1 1NB      0.069250
     21 H272        0.0860    0.8980    2.8200 hc        1 1NB      0.069250
     22 H281       -0.4720   -2.8150    1.0340 hc        1 1NB      0.132000
     23 H282       -1.4170    2.8260   -1.9560 hc        1 1NB      0.108500
     24 H191        3.5990    1.3600    0.1010 ha        1 1NB      0.205000
     25 H192        2.4880    1.5340   -1.3530 ha        1 1NB      0.205000
     26 H30         2.5970   -0.8890   -0.8570 h4        1 1NB      0.123000
     27 C17         4.5550    1.6540   -1.7880 c1        1 1NB      0.165000
     28 O5          2.4860   -2.8470   -1.5030 o         1 1NB     -0.335000
@<TRIPOS>BOND
     1    1    2 1   
     2    1   10 1   
     3    2   12 1   
     4    2   17 1   
     5    2   22 1   
     6    3    5 1   
     7    4    6 1   
     8    4   16 1   
     9    5    8 1   
    10    5   18 1   
    11    6    8 1   
    12    7   11 1   
    13    7   15 1   
    14    7   20 1   
    15    7   21 1   
    16    8   19 1   
    17    8   23 1   
    18    9   24 1   
    19    9   25 1   
    20    9   27 1   
    21   10   26 1   
    22   10   28 1   
    23   13   14 1   
@<TRIPOS>SUBSTRUCTURE
     1 1NB         1 TEMP              0 ****  ****    0 ROOT
