@<TRIPOS>MOLECULE
molecule
   28    28     1     0     0
SMALL
bcc


@<TRIPOS>ATOM
      1 C7           1.5290     0.0000     0.0000 c3         1 1NB      -0.183700
      2 C8           0.0000     0.0000     0.0000 c3         1 1NB      -0.061700
      3 C9          -0.5420     1.2750     0.6950 c3         1 1NB      -0.080400
      4 O4          -0.9020    -1.2050    -1.9130 oh         1 1NB      -0.609800
      5 C26         -1.9630     1.4140     0.0930 c3         1 1NB      -0.080400
      6 C29         -0.5450     0.0940    -1.4390 c3         1 1NB       0.140100
      7 C27          2.0400     0.0000     1.4410 c3         1 1NB      -0.039200
      8 C28         -1.7930     0.9920    -1.3800 c3         1 1NB      -0.113400
      9 C19          4.2020     0.9820     2.0080 c2         1 1NB      -0.212000
     10 C30          2.0320    -1.2300    -0.7120 c          1 1NB       0.584900
     11 H7           1.8890     0.8850    -0.5110 hc         1 1NB       0.078700
     12 H8          -0.3840    -0.8870     0.4900 hc         1 1NB       0.075700
     13 H91          0.0660     2.1350     0.4420 hc         1 1NB       0.049200
     14 H92         -0.5930     1.1330     1.7680 hc         1 1NB       0.049200
     15 H17          4.0890    -0.8110     0.9690 ha         1 1NB       0.128000
     16 HO4         -0.9360    -1.1980    -2.8550 ho         1 1NB       0.406000
     17 H261        -2.3000     2.4420     0.1550 hc         1 1NB       0.047700
     18 H262        -2.6540     0.7500     0.5990 hc         1 1NB       0.047700
     19 H29          0.2000     0.5390    -2.0870 h1         1 1NB       0.043700
     20 H271         1.6800    -0.8850     1.9520 hc         1 1NB       0.053200
     21 H272         1.6790     0.8840     1.9530 hc         1 1NB       0.053200
     22 H281        -1.6470     1.8680    -2.0010 hc         1 1NB       0.051700
     23 H282        -2.6640     0.4380    -1.7090 hc         1 1NB       0.051700
     24 H191         5.2850     0.9830     2.0060 ha         1 1NB       0.113500
     25 H192         3.6610     1.7940     2.4780 ha         1 1NB       0.113500
     26 H30          1.7810    -2.2140    -0.3340 h4         1 1NB       0.001200
     27 C17          3.5470     0.0010     1.4400 c2         1 1NB      -0.182200
     28 O5           2.7250    -1.1190    -1.6930 o          1 1NB      -0.528100
@<TRIPOS>BOND
     1     1     2 1   
     2     1     7 1   
     3     1    10 1   
     4     1    11 1   
     5     2     3 1   
     6     2     6 1   
     7     2    12 1   
     8     3     5 1   
     9     3    13 1   
    10     3    14 1   
    11    27     7 1   
    12    27     9 2   
    13    27    15 1   
    14    28    10 2   
    15     4     6 1   
    16     4    16 1   
    17     5     8 1   
    18     5    17 1   
    19     5    18 1   
    20     6     8 1   
    21     6    19 1   
    22     7    20 1   
    23     7    21 1   
    24     8    22 1   
    25     8    23 1   
    26     9    24 1   
    27     9    25 1   
    28    10    26 1   
@<TRIPOS>SUBSTRUCTURE
     1 1NB         1 TEMP              0 ****  ****    0 ROOT
