@<TRIPOS>MOLECULE
1ND
   46    49     1     0     0
SMALL
bcc


@<TRIPOS>ATOM
      1 O            0.0010     0.2150     0.0910 o          1 1ND      -0.591100
      2 F1           7.3880     1.4580    -6.8470 f          1 1ND      -0.231633
      3 N1           5.1670     0.1680    -5.1930 nc         1 1ND      -0.452800
      4 C2           5.4200     0.0790    -6.5320 cd         1 1ND       0.224600
      5 F2           7.7260    -0.6710    -6.6010 f          1 1ND      -0.231633
      6 N2           3.8490    -0.0260    -5.0310 na         1 1ND       0.178300
      7 C3           3.2030    -0.2400    -6.2660 cc         1 1ND      -0.089600
      8 F3           6.8990     0.0890    -8.4550 f          1 1ND      -0.231633
      9 N3           1.9840     0.3850     1.2260 n          1 1ND      -0.449800
     10 C4           1.7730    -0.4830    -6.5440 c3         1 1ND      -0.012100
     11 C5           1.4950    -0.2060    -8.0160 c3         1 1ND      -0.075400
     12 C6           2.5230    -0.8530    -8.9250 c3         1 1ND      -0.078400
     13 C7           3.9270    -0.3140    -8.6930 c3         1 1ND      -0.008100
     14 C8           4.2010    -0.1750    -7.2580 cd         1 1ND      -0.192600
     15 C9           3.2150     0.0430    -3.7540 ca         1 1ND       0.030800
     16 C10          2.1700    -0.8480    -3.4360 ca         1 1ND      -0.133000
     17 C11          1.5500    -0.7690    -2.1930 ca         1 1ND      -0.083000
     18 C12          1.9720     0.1710    -1.2470 ca         1 1ND      -0.131600
     19 C13          3.0100     1.0520    -1.5600 ca         1 1ND      -0.083000
     20 C14          3.6320     0.9970    -2.8040 ca         1 1ND      -0.133000
     21 C15          1.2480     0.2350     0.0560 c          1 1ND       0.661700
     22 C16          1.3190     0.2610     2.5170 c3         1 1ND       0.076500
     23 C17          2.3010    -0.3990     3.4970 c3         1 1ND      -0.093900
     24 C18          3.6040    -0.6010     2.7310 c3         1 1ND      -0.093900
     25 C19          3.3770    -0.0180     1.3260 c3         1 1ND       0.076500
     26 H4           1.5260    -1.5550    -6.3120 hc         1 1ND       0.061700
     27 H4A          1.1200     0.1640    -5.9000 hc         1 1ND       0.061700
     28 H5           0.4750    -0.5960    -8.2670 hc         1 1ND       0.051200
     29 H5A          1.4890     0.9010    -8.1900 hc         1 1ND       0.051200
     30 H6           2.2360    -0.6740    -9.9940 hc         1 1ND       0.048200
     31 H6A          2.5190    -1.9620    -8.7560 hc         1 1ND       0.048200
     32 H7           4.0360     0.6910    -9.1860 hc         1 1ND       0.063200
     33 H7A          4.6820    -0.9960    -9.1690 hc         1 1ND       0.063200
     34 H10          1.8370    -1.6080    -4.1590 ha         1 1ND       0.157000
     35 H11          0.7140    -1.4460    -1.9500 ha         1 1ND       0.156000
     36 H13          3.3370     1.8060    -0.8260 ha         1 1ND       0.156000
     37 H14          4.4500     1.7000    -3.0310 ha         1 1ND       0.157000
     38 H16          1.0400     1.2930     2.8670 h1         1 1ND       0.056200
     39 H16A         0.3710    -0.3380     2.4190 h1         1 1ND       0.056200
     40 H17          2.4570     0.2570     4.3880 hc         1 1ND       0.053950
     41 H17A         1.8940    -1.3750     3.8570 hc         1 1ND       0.053950
     42 H18          3.8650    -1.6850     2.6630 hc         1 1ND       0.053950
     43 H18A         4.4530    -0.0760     3.2330 hc         1 1ND       0.053950
     44 H19          4.0220     0.8920     1.1750 h1         1 1ND       0.056200
     45 H19A         3.6440    -0.7670     0.5310 h1         1 1ND       0.056200
     46 C1           6.8180     0.2340    -7.0920 c3         1 1ND       0.632600
@<TRIPOS>BOND
     1     1    21 2   
     2     2    46 1   
     3     3     4 2   
     4     3     6 1   
     5     4    14 1   
     6     4    46 1   
     7     5    46 1   
     8     6     7 1   
     9     6    15 1   
    10     7    10 1   
    11     7    14 2   
    12     8    46 1   
    13     9    21 1   
    14     9    22 1   
    15     9    25 1   
    16    10    11 1   
    17    10    26 1   
    18    10    27 1   
    19    11    12 1   
    20    11    28 1   
    21    11    29 1   
    22    12    13 1   
    23    12    30 1   
    24    12    31 1   
    25    13    14 1   
    26    13    32 1   
    27    13    33 1   
    28    15    16 ar  
    29    15    20 ar  
    30    16    17 ar  
    31    16    34 1   
    32    17    18 ar  
    33    17    35 1   
    34    18    19 ar  
    35    18    21 1   
    36    19    20 ar  
    37    19    36 1   
    38    20    37 1   
    39    22    23 1   
    40    22    38 1   
    41    22    39 1   
    42    23    24 1   
    43    23    40 1   
    44    23    41 1   
    45    24    25 1   
    46    24    42 1   
    47    24    43 1   
    48    25    44 1   
    49    25    45 1   
@<TRIPOS>SUBSTRUCTURE
     1 1ND         1 TEMP              0 ****  ****    0 ROOT
