@<TRIPOS>MOLECULE
1ND
   46    49     1     0     0
SMALL
bcc


@<TRIPOS>ATOM
      1 O            0.0000     0.0000     0.0000 o          1 1ND      -0.642100
      2 F1           6.5970    -2.6620    -6.7490 f          1 1ND      -0.205300
      3 N1           4.9120    -0.9980    -5.3420 nc         1 1ND      -0.598800
      4 C2           5.3700    -0.6440    -6.5190 cd         1 1ND       0.259600
      5 F2           7.5360    -0.7150    -7.4880 f          1 1ND      -0.205300
      6 N2           4.0360     0.0010    -4.8910 na         1 1ND       0.650300
      7 C3           3.9900     0.9650    -5.8390 cc         1 1ND      -0.250600
      8 F3           5.7890    -1.6460    -8.6290 f          1 1ND      -0.205300
      9 N3           1.8900     0.0000     1.1660 n          1 1ND      -0.155800
     10 C4           3.1970     2.2460    -5.8240 c3         1 1ND       0.068900
     11 C5           3.7740     3.1860    -6.8910 c3         1 1ND      -0.026400
     12 C6           3.9040     2.4330    -8.2180 c3         1 1ND      -0.030400
     13 C7           5.0260     1.3930    -8.1090 c3         1 1ND       0.063900
     14 C8           4.8060     0.5850    -6.8540 cd         1 1ND      -0.256600
     15 C9           3.3380     0.0020    -3.6800 ca         1 1ND      -0.145200
     16 C10          2.0090     0.4070    -3.6450 ca         1 1ND      -0.097500
     17 C11          1.3180     0.4090    -2.4550 ca         1 1ND      -0.071000
     18 C12          1.9540     0.0000    -1.2800 ca         1 1ND      -0.134600
     19 C13          3.2890    -0.4070    -1.3170 ca         1 1ND      -0.071000
     20 C14          3.9730    -0.4110    -2.5130 ca         1 1ND      -0.097500
     21 C15          1.2160     0.0000     0.0000 c          1 1ND       0.622700
     22 C16          1.2920    -0.1420     2.5020 c3         1 1ND       0.044500
     23 C17          2.4410    -0.0580     3.5290 c3         1 1ND      -0.034400
     24 C18          3.5510     0.6940     2.7490 c3         1 1ND      -0.034400
     25 C19          3.3510     0.1370     1.3150 c3         1 1ND       0.044500
     26 H4           3.2760     2.7120    -4.8490 hc         1 1ND       0.024200
     27 H4A          2.1590     2.0340    -6.0500 hc         1 1ND       0.024200
     28 H5           4.7520     3.5300    -6.5750 hc         1 1ND       0.020200
     29 H5A          3.1120     4.0330    -7.0210 hc         1 1ND       0.020200
     30 H6           4.1790     3.1470    -8.9850 hc         1 1ND       0.022700
     31 H6A          2.9740     1.9080    -8.4000 hc         1 1ND       0.022700
     32 H7           4.9570     0.7270    -8.9600 hc         1 1ND       0.030700
     33 H7A          5.9690     1.9180    -8.0150 hc         1 1ND       0.030700
     34 H10          1.5160     0.7240    -4.5570 ha         1 1ND       0.124500
     35 H11          0.2820     0.7250    -2.4290 ha         1 1ND       0.135500
     36 H13          3.7850    -0.7260    -0.4080 ha         1 1ND       0.135500
     37 H14          5.0090    -0.7270    -2.5430 ha         1 1ND       0.124500
     38 H16          0.5850     0.6600     2.6750 h1         1 1ND       0.026950
     39 H16A         0.7970    -1.1020     2.5830 h1         1 1ND       0.026950
     40 H17          2.1340     0.5110     4.3990 hc         1 1ND       0.026450
     41 H17A         2.7760    -1.0490     3.8090 hc         1 1ND       0.026450
     42 H18          4.5320     0.4370     3.1290 hc         1 1ND       0.026450
     43 H18A         3.3840     1.7640     2.7740 hc         1 1ND       0.026450
     44 H19          3.7390     0.8350     0.5830 h1         1 1ND       0.026950
     45 H19A         3.8310    -0.8290     1.2170 h1         1 1ND       0.026950
     46 C1           6.3410    -1.4310    -7.3610 c3         1 1ND       0.575600
@<TRIPOS>BOND
     1     1    21 2   
     2     2    46 1   
     3     3     4 2   
     4     3     6 1   
     5     4    14 1   
     6     4    46 1   
     7     5    46 1   
     8     6     7 1   
     9     6    15 1   
    10     7    10 1   
    11     7    14 2   
    12     8    46 1   
    13     9    21 1   
    14     9    22 1   
    15     9    25 1   
    16    10    11 1   
    17    10    26 1   
    18    10    27 1   
    19    11    12 1   
    20    11    28 1   
    21    11    29 1   
    22    12    13 1   
    23    12    30 1   
    24    12    31 1   
    25    13    14 1   
    26    13    32 1   
    27    13    33 1   
    28    15    16 ar  
    29    15    20 ar  
    30    16    17 ar  
    31    16    34 1   
    32    17    18 ar  
    33    17    35 1   
    34    18    19 ar  
    35    18    21 1   
    36    19    20 ar  
    37    19    36 1   
    38    20    37 1   
    39    22    23 1   
    40    22    38 1   
    41    22    39 1   
    42    23    24 1   
    43    23    40 1   
    44    23    41 1   
    45    24    25 1   
    46    24    42 1   
    47    24    43 1   
    48    25    44 1   
    49    25    45 1   
@<TRIPOS>SUBSTRUCTURE
     1 1ND         1 TEMP              0 ****  ****    0 ROOT
