@<TRIPOS>MOLECULE
molecule
   42    44     1     0     0
SMALL
bcc


@<TRIPOS>ATOM
      1 C1           0.0000     0.0000     0.0000 c3         1 1NE       0.097300
      2 N2           1.4640     0.0000     0.0000 n          1 1NE      -0.493800
      3 C3           2.1970     0.0000     1.2680 c3         1 1NE       0.097300
      4 C4           2.1370     0.0010    -1.1680 c          1 1NE       0.673700
      5 O5           1.5330    -0.0910    -2.2180 o          1 1NE      -0.595100
      6 C6           3.6100     0.1130    -1.1710 ca         1 1NE      -0.139600
      7 C7           4.2520     0.8820    -2.1440 ca         1 1NE      -0.084500
      8 C8           5.6260     0.9830    -2.1430 ca         1 1NE      -0.136000
      9 C9           6.3740     0.3210    -1.1760 ca         1 1NE       0.040800
     10 C10          5.7380    -0.4450    -0.2060 ca         1 1NE      -0.136000
     11 C11          4.3640    -0.5470    -0.1970 ca         1 1NE      -0.084500
     12 N12          7.7670     0.4260    -1.1800 na         1 1NE       0.158300
     13 N13          8.6770    -0.6260    -0.9970 nc         1 1NE      -0.451800
     14 C14          9.8920    -0.1370    -1.0670 cd         1 1NE       0.259600
     15 C15          9.7980     1.2350    -1.2940 cd         1 1NE      -0.259600
     16 C16         10.9230     2.2280    -1.4500 c3         1 1NE      -0.004100
     17 C17         10.3580     3.5040    -2.0860 c3         1 1NE      -0.084400
     18 C18          9.1070     3.9460    -1.3200 c3         1 1NE      -0.080400
     19 C19          7.9660     2.9580    -1.5900 c3         1 1NE      -0.016100
     20 C20          8.4820     1.5590    -1.3640 cc         1 1NE      -0.060600
     21 C21         11.1700    -0.9240    -0.9250 c3         1 1NE       0.616600
     22 F22         10.8700    -2.2860    -0.8200 f          1 1NE      -0.214300
     23 F23         11.9770    -0.7090    -2.0480 f          1 1NE      -0.214300
     24 F24         11.8500    -0.5050     0.2240 f          1 1NE      -0.214300
     25 H11C        -0.3610    -0.0080     1.0210 h1         1 1NE       0.043700
     26 H12C        -0.3610     0.8880    -0.5040 h1         1 1NE       0.043700
     27 H13C        -0.3610    -0.8810    -0.5170 h1         1 1NE       0.043700
     28 H31C         3.0770     0.6260     1.1760 h1         1 1NE       0.043700
     29 H32C         1.5590     0.3860     2.0540 h1         1 1NE       0.043700
     30 H33C         2.4980    -1.0120     1.5110 h1         1 1NE       0.043700
     31 H7           3.6700     1.3980    -2.8980 ha         1 1NE       0.155000
     32 H11          3.8700    -1.1450     0.5590 ha         1 1NE       0.155000
     33 H8           6.1250     1.5800    -2.8980 ha         1 1NE       0.152000
     34 H10          6.3230    -0.9580     0.5480 ha         1 1NE       0.152000
     35 H161        11.6900     1.8110    -2.0920 hc         1 1NE       0.058700
     36 H162        11.3400     2.4600    -0.4780 hc         1 1NE       0.058700
     37 H171        11.1040     4.2880    -2.0410 hc         1 1NE       0.048200
     38 H172        10.0970     3.3060    -3.1180 hc         1 1NE       0.048200
     39 H181         8.8080     4.9170    -1.6960 hc         1 1NE       0.054700
     40 H182         9.3330     3.9200    -0.2610 hc         1 1NE       0.054700
     41 H191         7.6740     3.0500    -2.6290 hc         1 1NE       0.063700
     42 H192         7.1750     3.1480    -0.8750 hc         1 1NE       0.063700
@<TRIPOS>BOND
     1     1     2 1
     2     2     3 1
     3     2     4 1
     4     4     5 2
     5     4     6 1
     6     6     7 ar
     7     6    11 ar
     8     7     8 ar
     9     8     9 ar
    10     9    10 ar
    11     9    12 1
    12    10    11 ar
    13    12    13 1
    14    12    20 1
    15    13    14 2
    16    14    15 1
    17    14    21 1
    18    15    16 1
    19    15    20 2
    20    16    17 1
    21    17    18 1
    22    18    19 1
    23    19    20 1
    24    21    22 1
    25    21    23 1
    26    21    24 1
    27     1    25 1
    28     1    26 1
    29     1    27 1
    30     3    28 1
    31     3    29 1
    32     3    30 1
    33     7    31 1
    34    11    32 1
    35     8    33 1
    36    10    34 1
    37    16    35 1
    38    16    36 1
    39    17    37 1
    40    17    38 1
    41    18    39 1
    42    18    40 1
    43    19    41 1
    44    19    42 1
@<TRIPOS>SUBSTRUCTURE
     1 1NE         1 TEMP              0 ****  ****    0 ROOT
