@<TRIPOS>MOLECULE
1NE
   43    45     1     0     0
SMALL
bcc


@<TRIPOS>ATOM
      1 C1           0.6820    -0.4220    -1.0540 c3         1 1NE       0.084100
      2 N2           1.5520     0.3510    -0.1400 nx         1 1NE      -0.590200
      3 C3           1.5180    -0.1720     1.2480 c3         1 1NE       0.084100
      4 C4           2.9900     0.4820    -0.6500 c          1 1NE       0.580700
      5 O5           3.4340     1.6160    -0.5080 o          1 1NE      -0.433100
      6 C6           3.6490    -0.6540    -1.2810 ca         1 1NE      -0.222600
      7 C7           4.5740    -0.3480    -2.2980 ca         1 1NE      -0.047000
      8 C8           5.2700    -1.3540    -2.9520 ca         1 1NE      -0.148000
      9 C9           5.0820    -2.7070    -2.5870 ca         1 1NE       0.129800
     10 C10          4.1650    -3.0070    -1.5440 ca         1 1NE      -0.148000
     11 C11          3.4660    -1.9940    -0.9090 ca         1 1NE      -0.047000
     12 N12          5.7710    -3.7440    -3.2490 na         1 1NE       0.138300
     13 N13          5.2610    -4.9980    -3.3180 nc         1 1NE      -0.459800
     14 C14          6.1650    -5.7600    -3.9810 cd         1 1NE       0.265600
     15 C15          7.3250    -4.9690    -4.3460 cd         1 1NE      -0.169600
     16 C16          8.5710    -5.3390    -5.0290 c3         1 1NE      -0.018100
     17 C17          9.3650    -4.0990    -5.4130 c3         1 1NE      -0.081400
     18 C18          9.3740    -3.0560    -4.3130 c3         1 1NE      -0.077400
     19 C19          7.9760    -2.5370    -3.9970 c3         1 1NE      -0.018100
     20 C20          7.0490    -3.6800    -3.8660 cc         1 1NE      -0.074600
     21 C21          5.9200    -7.2340    -4.2650 c3         1 1NE       0.630600
     22 F22          6.9340    -7.8430    -4.9560 f          1 1NE      -0.219967
     23 F23          5.7590    -7.9910    -3.1330 f          1 1NE      -0.219967
     24 F24          4.7940    -7.4700    -5.0120 f          1 1NE      -0.219967
     25 H11C        -0.3750    -0.3920    -0.6720 hx         1 1NE       0.106367
     26 H12C         1.0250    -1.4890    -1.1110 hx         1 1NE       0.106367
     27 H13C         0.7250     0.0360    -2.0790 hx         1 1NE       0.106367
     28 H31C         0.4750    -0.0760     1.6550 hx         1 1NE       0.106367
     29 H32C         2.2260     0.4290     1.8830 hx         1 1NE       0.106367
     30 H33C         1.8200    -1.2510     1.2690 hx         1 1NE       0.106367
     31 H7           4.7440     0.7060    -2.5850 ha         1 1NE       0.153000
     32 H11          2.7880    -2.2730    -0.0880 ha         1 1NE       0.153000
     33 H8           5.9600    -1.0790    -3.7680 ha         1 1NE       0.183500
     34 H10          4.0020    -4.0520    -1.2240 ha         1 1NE       0.183500
     35 H161         9.1820    -5.9910    -4.3450 hc         1 1NE       0.076200
     36 H162         8.3450    -5.9490    -5.9450 hc         1 1NE       0.076200
     37 H171         8.9290    -3.6530    -6.3450 hc         1 1NE       0.058700
     38 H172        10.4200    -4.4010    -5.6450 hc         1 1NE       0.058700
     39 H181         9.8250    -3.4950    -3.3850 hc         1 1NE       0.059200
     40 H182        10.0130    -2.1890    -4.6250 hc         1 1NE       0.059200
     41 H191         8.0040    -1.9270    -3.0550 hc         1 1NE       0.061200
     42 H192         7.6290    -1.8710    -4.8350 hc         1 1NE       0.061200
     43 H21          1.1830     1.3190    -0.1010 hn         1 1NE       0.460800
@<TRIPOS>BOND
     1     1     2 1   
     2     1    25 1   
     3     1    26 1   
     4     1    27 1   
     5     2     3 1   
     6     2     4 1   
     7     2    43 1   
     8     3    28 1   
     9     3    29 1   
    10     3    30 1   
    11     4     5 2   
    12     4     6 1   
    13     6     7 ar  
    14     6    11 ar  
    15     7     8 ar  
    16     7    31 1   
    17     8     9 ar  
    18     8    33 1   
    19     9    10 ar  
    20     9    12 1   
    21    10    11 ar  
    22    10    34 1   
    23    11    32 1   
    24    12    13 1   
    25    12    20 1   
    26    13    14 2   
    27    14    15 1   
    28    14    21 1   
    29    15    16 1   
    30    15    20 2   
    31    16    17 1   
    32    16    35 1   
    33    16    36 1   
    34    17    18 1   
    35    17    37 1   
    36    17    38 1   
    37    18    19 1   
    38    18    39 1   
    39    18    40 1   
    40    19    20 1   
    41    19    41 1   
    42    19    42 1   
    43    21    22 1   
    44    21    23 1   
    45    21    24 1   
@<TRIPOS>SUBSTRUCTURE
     1 1NE         1 TEMP              0 ****  ****    0 ROOT
