@<TRIPOS>MOLECULE
1NF
   46    49     1     0     0
SMALL
bcc


@<TRIPOS>ATOM
      1 C1           0.0000     0.0000     0.0000 ca         1 1NF       0.153900
      2 F1          -0.6750    -0.0000    -1.1700 f          1 1NF      -0.104900
      3 N1          -2.6930    -1.3470     0.9610 n          1 1NF      -0.175800
      4 C2           1.3840     0.0000     0.0000 ca         1 1NF      -0.144000
      5 N2           3.4780     0.0010     1.2070 na         1 1NF       0.653300
      6 C3           2.0760     0.0000     1.2030 ca         1 1NF      -0.129200
      7 N3           4.3030    -0.7590     2.0490 nc         1 1NF      -0.603800
      8 C4           1.3770     0.0000     2.4030 ca         1 1NF      -0.092000
      9 C5          -0.0030     0.0010     2.3980 ca         1 1NF      -0.055000
     10 C6          -0.6920     0.0050     1.2000 ca         1 1NF      -0.151300
     11 C7          -2.2000     0.0110     1.1980 c3         1 1NF       0.138300
     12 C8          -2.9750    -2.3230     2.0200 c3         1 1NF       0.053000
     13 C9          -3.0380    -3.6940     1.3130 c3         1 1NF      -0.031400
     14 C10         -3.4310    -3.2880    -0.1270 c3         1 1NF      -0.110400
     15 C11         -2.9510    -1.8580    -0.2550 c          1 1NF       0.629500
     16 C12          5.5520    -0.4900     1.7540 cd         1 1NF       0.262600
     17 C13          5.5610     0.4430     0.7200 cd         1 1NF      -0.255600
     18 C14          6.7580     1.0580     0.0370 c3         1 1NF       0.067900
     19 C15          6.2910     1.6890    -1.2800 c3         1 1NF      -0.029400
     20 C16          5.0750     2.5810    -1.0180 c3         1 1NF      -0.027400
     21 C17          3.8630     1.7070    -0.6720 c3         1 1NF       0.063900
     22 C18          4.2730     0.7260     0.3980 cc         1 1NF      -0.252600
     23 C19          6.7660    -1.0880     2.4170 c3         1 1NF       0.575600
     24 H2           1.9250    -0.0790    -0.9350 ha         1 1NF       0.137000
     25 H4           1.9160    -0.0010     3.3430 ha         1 1NF       0.130000
     26 H5          -0.5470     0.0030     3.3340 ha         1 1NF       0.114000
     27 H7          -2.5600     0.3640     2.1560 h1         1 1NF       0.037700
     28 H7A         -2.5570     0.6670     0.4140 h1         1 1NF       0.037700
     29 H8          -2.1780    -2.3170     2.7540 h1         1 1NF       0.016200
     30 H8A         -3.9260    -2.1000     2.4890 h1         1 1NF       0.016200
     31 H9          -3.8000    -4.3230     1.7580 hc         1 1NF       0.027700
     32 H9A         -2.0690    -4.1790     1.3250 hc         1 1NF       0.027700
     33 H10         -4.5060    -3.3380    -0.2520 hc         1 1NF       0.043700
     34 H10A        -2.9290    -3.9210    -0.8480 hc         1 1NF       0.043700
     35 H14          7.4930     0.2890    -0.1690 hc         1 1NF       0.027200
     36 H14A         7.1880     1.8210     0.6740 hc         1 1NF       0.027200
     37 H15          7.0930     2.2870    -1.6960 hc         1 1NF       0.019200
     38 H15A         6.0190     0.9060    -1.9780 hc         1 1NF       0.019200
     39 H16          4.8510     3.1220    -1.9300 hc         1 1NF       0.024700
     40 H16A         5.2940     3.2080    -0.1620 hc         1 1NF       0.024700
     41 H17          3.5820     1.1480    -1.5570 hc         1 1NF       0.030200
     42 H17A         3.0860     2.3450    -0.2700 hc         1 1NF       0.030200
     43 O1          -2.8170    -1.2620    -1.3030 o          1 1NF      -0.652500
     44 F2           6.3630    -2.0690     3.3290 f          1 1NF      -0.204633
     45 F3           7.4710    -0.0850     3.0910 f          1 1NF      -0.204633
     46 F4           7.5910    -1.6660     1.4450 f          1 1NF      -0.204633
@<TRIPOS>BOND
     1     1     2 1   
     2     1     4 ar  
     3     1    10 ar  
     4     3    11 1   
     5     3    12 1   
     6     3    15 1   
     7     4     6 ar  
     8     4    24 1   
     9     5     6 1   
    10     5     7 1   
    11     5    22 1   
    12     6     8 ar  
    13     7    16 2   
    14     8     9 ar  
    15     8    25 1   
    16     9    10 ar  
    17     9    26 1   
    18    10    11 1   
    19    11    27 1   
    20    11    28 1   
    21    12    13 1   
    22    12    29 1   
    23    12    30 1   
    24    13    14 1   
    25    13    31 1   
    26    13    32 1   
    27    14    15 1   
    28    14    33 1   
    29    14    34 1   
    30    15    43 2   
    31    16    17 1   
    32    16    23 1   
    33    17    18 1   
    34    17    22 2   
    35    18    19 1   
    36    18    35 1   
    37    18    36 1   
    38    19    20 1   
    39    19    37 1   
    40    19    38 1   
    41    20    21 1   
    42    20    39 1   
    43    20    40 1   
    44    21    22 1   
    45    21    41 1   
    46    21    42 1   
    47    23    44 1   
    48    23    45 1   
    49    23    46 1   
@<TRIPOS>SUBSTRUCTURE
     1 1NF         1 TEMP              0 ****  ****    0 ROOT
