@<TRIPOS>MOLECULE
1NF
   46    49     1     0     0
SMALL
bcc


@<TRIPOS>ATOM
      1 C1          -0.0010    -0.1930     0.0220 ca         1 1NF       0.152900
      2 F1          -0.6390    -0.5260    -1.1230 f          1 1NF      -0.118900
      3 N1          -2.9440     0.9660     0.5130 n          1 1NF      -0.489800
      4 C2           1.4050    -0.1210     0.0160 ca         1 1NF      -0.152000
      5 N2           3.5080     0.2850     1.2070 na         1 1NF       0.172300
      6 C3           2.0810     0.2110     1.2000 ca         1 1NF       0.039800
      7 N3           4.1970     1.0100     0.3140 nc         1 1NF      -0.446800
      8 C4           1.3540     0.4850     2.3760 ca         1 1NF      -0.147000
      9 C5          -0.0340     0.4060     2.3590 ca         1 1NF      -0.092000
     10 C6          -0.7330     0.0690     1.1990 ca         1 1NF      -0.142300
     11 C7          -2.2330    -0.0480     1.2270 c3         1 1NF       0.155300
     12 C8          -2.7350     2.3790     0.7590 c3         1 1NF       0.089000
     13 C9          -3.5110     3.1460    -0.3350 c3         1 1NF      -0.092400
     14 C10         -4.1510     2.0790    -1.2180 c3         1 1NF      -0.157400
     15 C11         -3.7170     0.7410    -0.6300 c          1 1NF       0.701500
     16 C12          5.5210     0.8450     0.6070 cd         1 1NF       0.222600
     17 C13          5.6790    -0.0330     1.7400 cd         1 1NF      -0.191600
     18 C14          6.8670    -0.5200     2.4500 c3         1 1NF      -0.008100
     19 C15          6.5150    -1.7200     3.3180 c3         1 1NF      -0.078400
     20 C16          5.2310    -1.5120     4.0980 c3         1 1NF      -0.074400
     21 C17          4.0210    -1.3220     3.1920 c3         1 1NF      -0.011100
     22 C18          4.3630    -0.3830     2.1060 cc         1 1NF      -0.089600
     23 C19          6.6060     1.5280    -0.1960 c3         1 1NF       0.633600
     24 H2           1.9490    -0.3190    -0.9220 ha         1 1NF       0.176000
     25 H4           1.8730     0.7720     3.3040 ha         1 1NF       0.152000
     26 H5          -0.5940     0.6190     3.2850 ha         1 1NF       0.146000
     27 H7          -2.5220    -1.0480     0.7820 h1         1 1NF       0.072200
     28 H7A         -2.5730    -0.0250     2.3050 h1         1 1NF       0.072200
     29 H8          -3.1220     2.6420     1.7820 h1         1 1NF       0.045200
     30 H8A         -1.6400     2.6290     0.7250 h1         1 1NF       0.045200
     31 H9          -2.8130     3.7900    -0.9220 hc         1 1NF       0.057700
     32 H9A         -4.2850     3.8040     0.1290 hc         1 1NF       0.057700
     33 H10         -3.7990     2.1420    -2.2770 hc         1 1NF       0.082700
     34 H10A        -5.2670     2.1410    -1.2100 hc         1 1NF       0.082700
     35 H14          7.6710    -0.8010     1.7170 hc         1 1NF       0.063700
     36 H14A         7.2800     0.3070     3.0910 hc         1 1NF       0.063700
     37 H15          6.4100    -2.6280     2.6680 hc         1 1NF       0.049200
     38 H15A         7.3560    -1.9100     4.0340 hc         1 1NF       0.049200
     39 H16          5.0480    -2.4000     4.7580 hc         1 1NF       0.049200
     40 H16A         5.3420    -0.6130     4.7600 hc         1 1NF       0.049200
     41 H17          3.7210    -2.3080     2.7440 hc         1 1NF       0.060700
     42 H17A         3.1520    -0.9480     3.7950 hc         1 1NF       0.060700
     43 O1          -4.0190    -0.3800    -1.0620 o          1 1NF      -0.617500
     44 F2           7.8840     1.2090     0.1940 f          1 1NF      -0.231300
     45 F3           6.5680     2.9000    -0.1390 f          1 1NF      -0.231300
     46 F4           6.5810     1.2400    -1.5380 f          1 1NF      -0.231300
@<TRIPOS>BOND
     1     1     2 1   
     2     1     4 ar  
     3     1    10 ar  
     4     3    11 1   
     5     3    12 1   
     6     3    15 1   
     7     4     6 ar  
     8     4    24 1   
     9     5     6 1   
    10     5     7 1   
    11     5    22 1   
    12     6     8 ar  
    13     7    16 2   
    14     8     9 ar  
    15     8    25 1   
    16     9    10 ar  
    17     9    26 1   
    18    10    11 1   
    19    11    27 1   
    20    11    28 1   
    21    12    13 1   
    22    12    29 1   
    23    12    30 1   
    24    13    14 1   
    25    13    31 1   
    26    13    32 1   
    27    14    15 1   
    28    14    33 1   
    29    14    34 1   
    30    15    43 2   
    31    16    17 1   
    32    16    23 1   
    33    17    18 1   
    34    17    22 2   
    35    18    19 1   
    36    18    35 1   
    37    18    36 1   
    38    19    20 1   
    39    19    37 1   
    40    19    38 1   
    41    20    21 1   
    42    20    39 1   
    43    20    40 1   
    44    21    22 1   
    45    21    41 1   
    46    21    42 1   
    47    23    44 1   
    48    23    45 1   
    49    23    46 1   
@<TRIPOS>SUBSTRUCTURE
     1 1NF         1 TEMP              0 ****  ****    0 ROOT
