@<TRIPOS>MOLECULE
molecule
   46    49     1     0     0
SMALL
bcc


@<TRIPOS>ATOM
      1 C1           0.0000     0.0000     0.0000 ca         1 1NF       0.171900
      2 F1          -0.6750    -0.0000    -1.1700 f          1 1NF      -0.104900
      3 N1          -2.6930    -1.3470     0.9610 n          1 1NF      -0.498800
      4 C2           1.3840     0.0000     0.0000 ca         1 1NF      -0.188000
      5 N2           3.4780     0.0010     1.2070 na         1 1NF       0.161300
      6 C3           2.0760     0.0000     1.2030 ca         1 1NF       0.054800
      7 N3           4.3030    -0.7590     2.0490 nc         1 1NF      -0.456800
      8 C4           1.3770     0.0000     2.4030 ca         1 1NF      -0.136000
      9 C5          -0.0030     0.0010     2.3980 ca         1 1NF      -0.084000
     10 C6          -0.6920     0.0050     1.2000 ca         1 1NF      -0.157300
     11 C7          -2.2000     0.0110     1.1980 c3         1 1NF       0.174300
     12 C8          -2.9750    -2.3230     2.0200 c3         1 1NF       0.097000
     13 C9          -3.0380    -3.6940     1.3130 c3         1 1NF      -0.097400
     14 C10         -3.4310    -3.2880    -0.1270 c3         1 1NF      -0.168400
     15 C11         -2.9510    -1.8580    -0.2550 c          1 1NF       0.699500
     16 C12          5.5520    -0.4900     1.7540 cd         1 1NF       0.261600
     17 C13          5.5610     0.4430     0.7200 cd         1 1NF      -0.262600
     18 C14          6.7580     1.0580     0.0370 c3         1 1NF      -0.004100
     19 C15          6.2910     1.6890    -1.2800 c3         1 1NF      -0.084400
     20 C16          5.0750     2.5810    -1.0180 c3         1 1NF      -0.080400
     21 C17          3.8630     1.7070    -0.6720 c3         1 1NF      -0.017100
     22 C18          4.2730     0.7260     0.3980 cc         1 1NF      -0.057600
     23 C19          6.7660    -1.0880     2.4170 c3         1 1NF       0.616600
     24 H2           1.9250    -0.0790    -0.9350 ha         1 1NF       0.159000
     25 H4           1.9160    -0.0010     3.3430 ha         1 1NF       0.159000
     26 H5          -0.5470     0.0030     3.3340 ha         1 1NF       0.143000
     27 H7          -2.5600     0.3640     2.1560 h1         1 1NF       0.069700
     28 H7A         -2.5570     0.6670     0.4140 h1         1 1NF       0.069700
     29 H8          -2.1780    -2.3170     2.7540 h1         1 1NF       0.045700
     30 H8A         -3.9260    -2.1000     2.4890 h1         1 1NF       0.045700
     31 H9          -3.8000    -4.3230     1.7580 hc         1 1NF       0.060200
     32 H9A         -2.0690    -4.1790     1.3250 hc         1 1NF       0.060200
     33 H10         -4.5060    -3.3380    -0.2520 hc         1 1NF       0.077700
     34 H10A        -2.9290    -3.9210    -0.8480 hc         1 1NF       0.077700
     35 H14          7.4930     0.2890    -0.1690 hc         1 1NF       0.058700
     36 H14A         7.1880     1.8210     0.6740 hc         1 1NF       0.058700
     37 H15          7.0930     2.2870    -1.6960 hc         1 1NF       0.048700
     38 H15A         6.0190     0.9060    -1.9780 hc         1 1NF       0.048700
     39 H16          4.8510     3.1220    -1.9300 hc         1 1NF       0.055200
     40 H16A         5.2940     3.2080    -0.1620 hc         1 1NF       0.055200
     41 H17          3.5820     1.1480    -1.5570 hc         1 1NF       0.065200
     42 H17A         3.0860     2.3450    -0.2700 hc         1 1NF       0.065200
     43 O1          -2.8170    -1.2620    -1.3030 o          1 1NF      -0.617500
     44 F2           6.3630    -2.0690     3.3290 f          1 1NF      -0.214300
     45 F3           7.4710    -0.0850     3.0910 f          1 1NF      -0.214300
     46 F4           7.5910    -1.6660     1.4450 f          1 1NF      -0.214300
@<TRIPOS>BOND
     1     1     2 1
     2     1     4 ar
     3     1    10 ar
     4     3    11 1
     5     3    12 1
     6     3    15 1
     7    43    15 2
     8     4     6 ar
     9    44    23 1
    10     5     6 1
    11     5     7 1
    12     5    22 1
    13     6     8 ar
    14    45    23 1
    15     7    16 2
    16     8     9 ar
    17    46    23 1
    18     9    10 ar
    19    10    11 1
    20    12    13 1
    21    13    14 1
    22    14    15 1
    23    16    17 1
    24    16    23 1
    25    17    18 1
    26    17    22 2
    27    18    19 1
    28    19    20 1
    29    20    21 1
    30    21    22 1
    31     4    24 1
    32     8    25 1
    33     9    26 1
    34    11    27 1
    35    11    28 1
    36    12    29 1
    37    12    30 1
    38    13    31 1
    39    13    32 1
    40    14    33 1
    41    14    34 1
    42    18    35 1
    43    18    36 1
    44    19    37 1
    45    19    38 1
    46    20    39 1
    47    20    40 1
    48    21    41 1
    49    21    42 1
@<TRIPOS>SUBSTRUCTURE
     1 1NF         1 TEMP              0 ****  ****    0 ROOT
