@<TRIPOS>MOLECULE
molecule
   49    52     1     0     0
SMALL
bcc


@<TRIPOS>ATOM
      1 F1           0.0000     0.0000     0.0000 f          1 1NG      -0.215633
      2 C2           1.3990     0.0000     0.0000 c3         1 1NG       0.616600
      3 F3           1.8660     0.0000     1.3200 f          1 1NG      -0.215633
      4 F4           1.8650    -1.1430    -0.6600 f          1 1NG      -0.215633
      5 C5           1.9010     1.2310    -0.7110 cc         1 1NG       0.257600
      6 N6           1.1610     2.2110    -1.1690 nd         1 1NG      -0.451800
      7 N7           2.0050     3.1620    -1.7600 na         1 1NG       0.168300
      8 C8           3.2710     2.7180    -1.6390 cd         1 1NG      -0.059600
      9 C9           4.5380     3.3850    -2.1130 c3         1 1NG      -0.013100
     10 C10          5.7260     2.7290    -1.3980 c3         1 1NG      -0.080400
     11 C11          5.6220     1.2070    -1.5250 c3         1 1NG      -0.083400
     12 C12          4.4540     0.7010    -0.6690 c3         1 1NG      -0.006100
     13 C13          3.2340     1.5270    -0.9890 cc         1 1NG      -0.266600
     14 C14          1.6040     4.3580    -2.3700 ca         1 1NG       0.021800
     15 C15          2.1930     4.7650    -3.5580 ca         1 1NG      -0.122000
     16 C16          1.7940     5.9450    -4.1560 ca         1 1NG      -0.099500
     17 C17          0.8110     6.7210    -3.5710 ca         1 1NG      -0.062300
     18 C18          0.3790     8.0070    -4.2260 c3         1 1NG      -0.108100
     19 C19         -0.7570     7.7310    -5.1760 c          1 1NG       0.674100
     20 O20         -1.1750     6.6000    -5.3090 o          1 1NG      -0.591100
     21 N21         -1.3090     8.7400    -5.8800 n          1 1NG      -0.500800
     22 C22         -2.4180     8.6110    -6.8370 c3         1 1NG       0.099500
     23 C23         -2.6920    10.0160    -7.4120 c3         1 1NG      -0.097400
     24 C24         -1.3510    10.7590    -7.1690 c3         1 1NG      -0.097400
     25 C25         -0.9060    10.1560    -5.8110 c3         1 1NG       0.099500
     26 C26          0.2230     6.3180    -2.3860 ca         1 1NG      -0.099500
     27 C27          0.6130     5.1370    -1.7870 ca         1 1NG      -0.122000
     28 H9           4.6400     3.2540    -3.1830 hc         1 1NG       0.059200
     29 H9A          4.5060     4.4410    -1.8710 hc         1 1NG       0.059200
     30 H10          6.6500     3.0650    -1.8530 hc         1 1NG       0.049200
     31 H10A         5.7120     3.0040    -0.3510 hc         1 1NG       0.049200
     32 H11          5.4100     0.9680    -2.5600 hc         1 1NG       0.050700
     33 H11A         6.5360     0.7730    -1.1380 hc         1 1NG       0.050700
     34 H12          4.2510    -0.3270    -0.9440 hc         1 1NG       0.061200
     35 H12A         4.7050     0.8530     0.3740 hc         1 1NG       0.061200
     36 H15          2.9640     4.1580    -4.0170 ha         1 1NG       0.148000
     37 H16          2.2540     6.2640    -5.0840 ha         1 1NG       0.138000
     38 H18          1.2120     8.4310    -4.7730 hc         1 1NG       0.067200
     39 H18A         0.0520     8.7070    -3.4670 hc         1 1NG       0.067200
     40 H22         -2.1380     7.9350    -7.6360 h1         1 1NG       0.049200
     41 H22A        -3.3020     8.2440    -6.3290 h1         1 1NG       0.049200
     42 H23         -3.4980    10.4990    -6.8730 hc         1 1NG       0.056450
     43 H23A        -2.9090     9.9590    -8.4720 hc         1 1NG       0.056450
     44 H24         -0.6350    10.5270    -7.9480 hc         1 1NG       0.056450
     45 H24A        -1.5110    11.8270    -7.0840 hc         1 1NG       0.056450
     46 H25         -1.4160    10.6520    -4.9940 h1         1 1NG       0.049200
     47 H25A         0.1680    10.2360    -5.6980 h1         1 1NG       0.049200
     48 H26         -0.5490     6.9260    -1.9310 ha         1 1NG       0.138000
     49 H27          0.1510     4.8220    -0.8590 ha         1 1NG       0.148000
@<TRIPOS>BOND
     1     1     2 1
     2     2     3 1
     3     2     4 1
     4     2     5 1
     5     5     6 2
     6     5    13 1
     7     6     7 1
     8     7     8 1
     9     7    14 1
    10     8     9 1
    11     8    13 2
    12     9    10 1
    13    10    11 1
    14    11    12 1
    15    12    13 1
    16    14    15 ar
    17    14    27 ar
    18    15    16 ar
    19    16    17 ar
    20    17    18 1
    21    17    26 ar
    22    18    19 1
    23    19    20 2
    24    19    21 1
    25    21    22 1
    26    21    25 1
    27    22    23 1
    28    23    24 1
    29    24    25 1
    30    26    27 ar
    31     9    28 1
    32     9    29 1
    33    10    30 1
    34    10    31 1
    35    11    32 1
    36    11    33 1
    37    12    34 1
    38    12    35 1
    39    15    36 1
    40    16    37 1
    41    18    38 1
    42    18    39 1
    43    22    40 1
    44    22    41 1
    45    23    42 1
    46    23    43 1
    47    24    44 1
    48    24    45 1
    49    25    46 1
    50    25    47 1
    51    26    48 1
    52    27    49 1
@<TRIPOS>SUBSTRUCTURE
     1 1NG         1 TEMP              0 ****  ****    0 ROOT
