@<TRIPOS>MOLECULE
1NG
   49    52     1     0     0
SMALL
bcc


@<TRIPOS>ATOM
      1 F1          -0.5490     1.4410     1.0790 f          1 1NG      -0.232300
      2 C2           0.4530     0.8330     0.3640 c3         1 1NG       0.633600
      3 F3           1.2210     0.2110     1.3180 f          1 1NG      -0.232300
      4 F4          -0.1720    -0.2000    -0.2900 f          1 1NG      -0.232300
      5 C5           1.2240     1.7680    -0.5410 cc         1 1NG       0.222600
      6 N6           0.6170     2.4450    -1.5620 nd         1 1NG      -0.453800
      7 N7           1.5670     3.1700    -2.1700 na         1 1NG       0.183300
      8 C8           2.8240     2.9910    -1.5580 cd         1 1NG      -0.091600
      9 C9           4.1260     3.5960    -1.9000 c3         1 1NG      -0.011100
     10 C10          5.0700     3.4590    -0.7120 c3         1 1NG      -0.075400
     11 C11          5.0620     2.0580    -0.1310 c3         1 1NG      -0.077400
     12 C12          3.6980     1.6630     0.4170 c3         1 1NG      -0.007100
     13 C13          2.6280     2.0850    -0.4950 cc         1 1NG      -0.192600
     14 C14          1.2860     4.0430    -3.2640 ca         1 1NG       0.011800
     15 C15          2.1980     4.1560    -4.3320 ca         1 1NG      -0.121000
     16 C16          1.9210     5.0150    -5.3900 ca         1 1NG      -0.115500
     17 C17          0.7370     5.7630    -5.4150 ca         1 1NG      -0.081300
     18 C18          0.4710     6.6970    -6.5410 c3         1 1NG      -0.108100
     19 C19          0.5710     5.9820    -7.8810 c          1 1NG       0.660100
     20 O20          1.6570     5.9390    -8.4950 o          1 1NG      -0.609100
     21 N21         -0.5750     5.4460    -8.4400 n          1 1NG      -0.458800
     22 C22         -1.7810     5.1810    -7.6760 c3         1 1NG       0.082500
     23 C23         -2.5250     4.0220    -8.3610 c3         1 1NG      -0.091900
     24 C24         -1.7110     3.6540    -9.5970 c3         1 1NG      -0.091900
     25 C25         -0.5060     4.6080    -9.6270 c3         1 1NG       0.082500
     26 C26         -0.1730     5.6370    -4.3610 ca         1 1NG      -0.115500
     27 C27          0.0900     4.7890    -3.2880 ca         1 1NG      -0.121000
     28 H9           4.0100     4.6770    -2.1770 hc         1 1NG       0.060700
     29 H9A          4.5630     3.0620    -2.7880 hc         1 1NG       0.060700
     30 H10          4.7750     4.1930     0.0830 hc         1 1NG       0.050200
     31 H10A         6.1080     3.7190    -1.0470 hc         1 1NG       0.050200
     32 H11          5.8180     1.9940     0.6940 hc         1 1NG       0.048200
     33 H11A         5.3670     1.3270    -0.9260 hc         1 1NG       0.048200
     34 H12          3.6570     0.5520     0.5770 hc         1 1NG       0.063200
     35 H12A         3.5360     2.1450     1.4210 hc         1 1NG       0.063200
     36 H15          3.1270     3.5660    -4.3440 ha         1 1NG       0.155000
     37 H16          2.6320     5.1050    -6.2300 ha         1 1NG       0.152000
     38 H18         -0.5300     7.1900    -6.4230 hc         1 1NG       0.080200
     39 H18A         1.2530     7.5070    -6.5420 hc         1 1NG       0.080200
     40 H22         -2.4170     6.1100    -7.6710 h1         1 1NG       0.052700
     41 H22A        -1.5330     4.9240    -6.6080 h1         1 1NG       0.052700
     42 H23         -3.5590     4.3410    -8.6400 hc         1 1NG       0.054200
     43 H23A        -2.6100     3.1530    -7.6640 hc         1 1NG       0.054200
     44 H24         -2.3190     3.7710   -10.5270 hc         1 1NG       0.054200
     45 H24A        -1.3650     2.5930    -9.5450 hc         1 1NG       0.054200
     46 H25          0.4660     4.0430    -9.6520 h1         1 1NG       0.052700
     47 H25A        -0.5420     5.2710   -10.5340 h1         1 1NG       0.052700
     48 H26         -1.1090     6.2160    -4.3700 ha         1 1NG       0.152000
     49 H27         -0.6440     4.7060    -2.4710 ha         1 1NG       0.155000
@<TRIPOS>BOND
     1     1     2 1   
     2     2     3 1   
     3     2     4 1   
     4     2     5 1   
     5     5     6 2   
     6     5    13 1   
     7     6     7 1   
     8     7     8 1   
     9     7    14 1   
    10     8     9 1   
    11     8    13 2   
    12     9    10 1   
    13     9    28 1   
    14     9    29 1   
    15    10    11 1   
    16    10    30 1   
    17    10    31 1   
    18    11    12 1   
    19    11    32 1   
    20    11    33 1   
    21    12    13 1   
    22    12    34 1   
    23    12    35 1   
    24    14    15 ar  
    25    14    27 ar  
    26    15    16 ar  
    27    15    36 1   
    28    16    17 ar  
    29    16    37 1   
    30    17    18 1   
    31    17    26 ar  
    32    18    19 1   
    33    18    38 1   
    34    18    39 1   
    35    19    20 2   
    36    19    21 1   
    37    21    22 1   
    38    21    25 1   
    39    22    23 1   
    40    22    40 1   
    41    22    41 1   
    42    23    24 1   
    43    23    42 1   
    44    23    43 1   
    45    24    25 1   
    46    24    44 1   
    47    24    45 1   
    48    25    46 1   
    49    25    47 1   
    50    26    27 ar  
    51    26    48 1   
    52    27    49 1   
@<TRIPOS>SUBSTRUCTURE
     1 1NG         1 TEMP              0 ****  ****    0 ROOT
