@<TRIPOS>MOLECULE
molecule
   62    63     1     0     0
SMALL
bcc


@<TRIPOS>ATOM
      1 C4           0.0000     0.0000     0.0000 c3         1 1NH      -0.120900
      2 C1           1.5070     0.0000     0.0000 c2         1 1NH      -0.018400
      3 C3           2.2590     0.0000     1.3050 c3         1 1NH      -0.056200
      4 C5           2.5150     1.4420     1.7470 c3         1 1NH      -0.101200
      5 C7           3.2680     1.4410     3.0510 c2         1 1NH      -0.460200
      6 C6           4.3820     2.1220     3.1650 c2         1 1NH      -0.034400
      7 C8           4.9750     2.8030     1.9590 c3         1 1NH      -0.114900
      8 C9           5.0700     2.2230     4.5010 c3         1 1NH       0.170600
      9 O8           4.3200     1.4990     5.4790 os         1 1NH      -0.346600
     10 C11          5.0200     1.6330     6.7180 c3         1 1NH       0.167700
     11 C17          4.2780     0.8880     7.7970 ca         1 1NH      -0.092300
     12 C18          4.5670    -0.4420     8.0410 ca         1 1NH      -0.144000
     13 C12          3.8910    -1.1350     9.0310 ca         1 1NH      -0.146000
     14 C13          2.9220    -0.5010     9.7800 ca         1 1NH      -0.133000
     15 C14          2.6240     0.8420     9.5380 ca         1 1NH      -0.163600
     16 C16          3.3150     1.5350     8.5420 ca         1 1NH      -0.069000
     17 C15          1.5880     1.5270    10.3370 c          1 1NH       0.537300
     18 O9           1.5910     2.7400    10.4250 o          1 1NH      -0.620100
     19 C19          0.5480     0.7390    11.0310 ca         1 1NH      -0.172600
     20 C24         -0.1360     1.2850    12.1200 ca         1 1NH      -0.116000
     21 C23         -1.1060     0.5430    12.7620 ca         1 1NH      -0.143500
     22 C22         -1.4020    -0.7370    12.3290 ca         1 1NH      -0.197000
     23 C21         -0.7280    -1.2830    11.2500 ca         1 1NH      -0.143500
     24 C20          0.2400    -0.5510    10.5960 ca         1 1NH      -0.116000
     25 C2           2.1610     0.0010    -1.1350 c2         1 1NH      -0.512200
     26 C10          1.4130     0.1240    -2.4370 c3         1 1NH       0.164600
     27 O3           1.9820     1.1770    -3.2170 os         1 1NH      -0.496200
     28 P2           1.1390     1.2520    -4.5860 p5         1 1NH       1.244800
     29 O7          -0.2800     1.5350    -4.2760 o          1 1NH      -0.791500
     30 O1           1.2470    -0.1550    -5.3600 o          1 1NH      -0.791500
     31 O2           1.7290     2.4230    -5.5180 os         1 1NH      -0.635800
     32 P1           0.8440     2.4410    -6.8610 p5         1 1NH       1.187900
     33 O4          -0.5700     2.7070    -6.5160 o          1 1NH      -0.734167
     34 O5           1.3830     3.5960    -7.8440 o          1 1NH      -0.734167
     35 O6           0.9580     1.0150    -7.5980 o          1 1NH      -0.734167
     36 H41         -0.3610    -0.8280    -0.5980 hc         1 1NH       0.048033
     37 H42         -0.3610     0.9320    -0.4180 hc         1 1NH       0.048033
     38 H43         -0.3610    -0.1030     1.0160 hc         1 1NH       0.048033
     39 H31          3.2060    -0.5110     1.1760 hc         1 1NH       0.048200
     40 H32          1.6730    -0.5100     2.0600 hc         1 1NH       0.048200
     41 H51          1.5680     1.9530     1.8770 hc         1 1NH       0.077200
     42 H52          3.1000     1.9530     0.9920 hc         1 1NH       0.077200
     43 H7           3.5380     0.7840     2.2340 ha         1 1NH       0.357000
     44 H81          4.2620     3.5150     1.5590 hc         1 1NH       0.049033
     45 H82          5.8800     3.3230     2.2470 hc         1 1NH       0.049033
     46 H83          5.2080     2.0630     1.2040 hc         1 1NH       0.049033
     47 H91          6.0660     1.8030     4.4260 h1         1 1NH       0.020700
     48 H92          5.1380     3.2630     4.7950 h1         1 1NH       0.020700
     49 H111         5.0870     2.6810     6.9830 h1         1 1NH       0.014700
     50 H112         6.0170     1.2210     6.6150 h1         1 1NH       0.014700
     51 H18          5.3270    -0.9450     7.4560 ha         1 1NH       0.114000
     52 H12          4.1230    -2.1760     9.2170 ha         1 1NH       0.106000
     53 H13          2.3920    -1.0440    10.5530 ha         1 1NH       0.131000
     54 H16          3.0880     2.5770     8.3500 ha         1 1NH       0.143000
     55 H24          0.0950     2.2870    12.4590 ha         1 1NH       0.134000
     56 H23         -1.6370     0.9640    13.6060 ha         1 1NH       0.102000
     57 H22         -2.1640    -1.3160    12.8380 ha         1 1NH       0.098000
     58 H21         -0.9670    -2.2850    10.9150 ha         1 1NH       0.102000
     59 H20          0.7660    -0.9800     9.7520 ha         1 1NH       0.134000
     60 H2           1.6960    -0.8530    -1.6120 ha         1 1NH       0.352000
     61 H101         0.3720     0.3450    -2.2360 h1         1 1NH       0.041700
     62 H102         1.4840    -0.8090    -2.9830 h1         1 1NH       0.041700
@<TRIPOS>BOND
     1     1     2 1
     2     1    36 1
     3     1    37 1
     4     1    38 1
     5     2     3 1
     6     2    25 2
     7     3     4 1
     8     3    39 1
     9     3    40 1
    10     4     5 1
    11     4    41 1
    12     4    42 1
    13     5     6 2
    14     5    43 1
    15     6     7 1
    16     6     8 1
    17     7    44 1
    18     7    45 1
    19     7    46 1
    20     8     9 1
    21     8    47 1
    22     8    48 1
    23     9    10 1
    24    10    11 1
    25    10    49 1
    26    10    50 1
    27    11    12 ar
    28    11    16 ar
    29    12    13 ar
    30    12    51 1
    31    13    14 ar
    32    13    52 1
    33    14    15 ar
    34    14    53 1
    35    15    16 ar
    36    15    17 1
    37    16    54 1
    38    17    18 2
    39    17    19 1
    40    19    20 ar
    41    19    24 ar
    42    20    21 ar
    43    20    55 1
    44    21    22 ar
    45    21    56 1
    46    22    23 ar
    47    22    57 1
    48    23    24 ar
    49    23    58 1
    50    24    59 1
    51    25    26 1
    52    25    60 1
    53    26    27 1
    54    26    61 1
    55    26    62 1
    56    27    28 1
    57    28    29 1
    58    28    30 1
    59    28    31 1
    60    31    32 1
    61    32    33 1
    62    32    34 1
    63    32    35 1
@<TRIPOS>SUBSTRUCTURE
     1 1NH         1 TEMP              0 ****  ****    0 ROOT
