@<TRIPOS>MOLECULE
1NJ
   71    73     1     0     0
SMALL
bcc


@<TRIPOS>ATOM
      1 O1           0.6100    -1.6590    -0.4710 o          1 1NJ      -0.559100
      2 C2           1.3150    -0.6460    -0.3740 c          1 1NJ       0.590600
      3 N3           1.4810     0.0890     0.8000 ns         1 1NJ      -0.459100
      4 C5           1.1190    -0.2830     2.0770 ca         1 1NJ       0.171600
      5 C6           0.6390    -1.5790     2.4120 ca         1 1NJ      -0.186500
      6 C8           0.3680    -1.9070     3.7270 ca         1 1NJ      -0.051500
      7 C10          0.5390    -0.9610     4.7500 ca         1 1NJ      -0.307900
      8 C11          0.2990    -1.3160     6.1530 ce         1 1NJ       0.665800
      9 N12         -1.1580    -1.8200     6.3070 nz         1 1NJ      -0.902600
     10 N15          1.1210    -1.2210     7.1090 n2         1 1NJ      -0.697100
     11 C17          1.0070     0.3280     4.4370 ca         1 1NJ      -0.051500
     12 C19          1.2830     0.6710     3.1280 ca         1 1NJ      -0.186500
     13 C21          2.1090    -0.0800    -1.5310 ca         1 1NJ       0.417800
     14 N22          3.2370    -0.7650    -1.8350 nb         1 1NJ      -0.706000
     15 C23          4.0090    -0.2570    -2.8260 ca         1 1NJ       0.644600
     16 O24          5.1660    -0.8800    -3.2330 os         1 1NJ      -0.436100
     17 C25          5.5520    -2.0800    -2.5590 c3         1 1NJ       0.122700
     18 C29          3.7100     0.9490    -3.5240 ca         1 1NJ      -0.235300
     19 C31          2.5480     1.6190    -3.1830 ca         1 1NJ      -0.041000
     20 C33          1.7030     1.1010    -2.1780 cp         1 1NJ      -0.174300
     21 C34          0.4420     1.7920    -1.9010 cp         1 1NJ       0.031000
     22 C35         -0.7170     1.3330    -2.5580 ca         1 1NJ      -0.121000
     23 C37         -1.9080     2.0450    -2.4910 ca         1 1NJ      -0.082000
     24 C39          0.3690     2.9340    -1.0910 ca         1 1NJ      -0.108600
     25 C40          1.5190     3.5370    -0.2720 c          1 1NJ       0.924200
     26 O41          1.9370     4.6550    -0.6530 o          1 1NJ      -0.795300
     27 O43          1.8940     2.9180     0.7640 o          1 1NJ      -0.795300
     28 C44         -0.8270     3.6540    -1.0320 ca         1 1NJ      -0.093000
     29 C46         -1.9480     3.2430    -1.7610 ca         1 1NJ      -0.219600
     30 C47         -3.1590     4.0600    -1.8040 c          1 1NJ       0.590700
     31 O48         -4.3330     3.7350    -1.7030 o          1 1NJ      -0.439100
     32 N49         -2.8770     5.5310    -2.0980 ny         1 1NJ      -0.678800
     33 C51         -3.8570     6.5000    -1.5010 c3         1 1NJ       0.122500
     34 C53         -4.0070     7.7480    -2.4000 c3         1 1NJ       0.108400
     35 O56         -4.2120     7.2870    -3.7260 oh         1 1NJ      -0.632800
     36 C58         -3.4960     6.8920    -0.0440 c3         1 1NJ      -0.065000
     37 C59         -4.5000     7.9360     0.4310 c3         1 1NJ      -0.108433
     38 C63         -3.6220     5.6620     0.8470 c3         1 1NJ      -0.108433
     39 C67         -2.0900     7.4580     0.0770 c3         1 1NJ      -0.108433
     40 H1           1.8880     1.0200     0.7010 hn         1 1NJ       0.402500
     41 H2           0.5000    -2.3370     1.6210 ha         1 1NJ       0.196500
     42 H3           0.0530    -2.9360     3.9590 ha         1 1NJ       0.134000
     43 H4          -1.7860    -1.0480     6.0710 hn         1 1NJ       0.448800
     44 H5          -1.3100    -2.5750     5.6310 hn         1 1NJ       0.448800
     45 H6           0.9070    -1.4330     8.0570 hn         1 1NJ       0.453400
     46 H7           1.1660     1.0670     5.2380 ha         1 1NJ       0.134000
     47 H8           1.6450     1.6900     2.8820 ha         1 1NJ       0.196500
     48 H9           4.7780    -2.8720    -2.6930 h1         1 1NJ       0.056033
     49 H10          6.5050    -2.3580    -3.0780 h1         1 1NJ       0.056033
     50 H11          5.7310    -1.8800    -1.4760 h1         1 1NJ       0.056033
     51 H12          4.4010     1.3180    -4.2930 ha         1 1NJ       0.173000
     52 H13          2.2840     2.5640    -3.6830 ha         1 1NJ       0.159000
     53 H14         -0.6730     0.4030    -3.1480 ha         1 1NJ       0.161000
     54 H15         -2.8050     1.6850    -3.0190 ha         1 1NJ       0.151000
     55 H17         -0.8480     4.5490    -0.3870 ha         1 1NJ       0.145000
     56 H18         -2.9080     5.6370    -3.1240 hn         1 1NJ       0.470300
     57 H19         -4.8600     5.9690    -1.4880 hx         1 1NJ       0.124700
     58 H20         -4.8990     8.3310    -2.0450 h1         1 1NJ       0.067700
     59 H21         -3.0910     8.3950    -2.3620 h1         1 1NJ       0.067700
     60 H22         -4.4950     8.0430    -4.2550 ho         1 1NJ       0.446000
     61 H23         -4.2970     8.9270    -0.0430 hc         1 1NJ       0.055256
     62 H24         -4.4130     8.0610     1.5390 hc         1 1NJ       0.055256
     63 H25         -5.5450     7.6200     0.1950 hc         1 1NJ       0.055256
     64 H26         -3.4570     5.9530     1.9130 hc         1 1NJ       0.055256
     65 H27         -2.8600     4.8880     0.5830 hc         1 1NJ       0.055256
     66 H28         -4.6400     5.2110     0.7540 hc         1 1NJ       0.055256
     67 H29         -1.8920     8.2300    -0.7040 hc         1 1NJ       0.055256
     68 H30         -1.9740     7.9450     1.0780 hc         1 1NJ       0.055256
     69 H31         -1.3100     6.6610     0.0080 hc         1 1NJ       0.055256
     70 H123        -1.3740    -2.1580     7.2440 hn         1 1NJ       0.448800
     71 H492        -1.9260     5.7630    -1.7820 hn         1 1NJ       0.470300
@<TRIPOS>BOND
     1     1     2 2   
     2     2     3 1   
     3     2    13 1   
     4     3     4 1   
     5     3    40 1   
     6     4     5 ar  
     7     4    12 ar  
     8     5     6 ar  
     9     5    41 1   
    10     6     7 ar  
    11     6    42 1   
    12     7     8 1   
    13     7    11 ar  
    14     8     9 1   
    15     8    10 2   
    16     9    43 1   
    17     9    44 1   
    18     9    70 1   
    19    10    45 1   
    20    11    12 ar  
    21    11    46 1   
    22    12    47 1   
    23    13    14 ar  
    24    13    20 ar  
    25    14    15 ar  
    26    15    16 1   
    27    15    18 ar  
    28    16    17 1   
    29    17    48 1   
    30    17    49 1   
    31    17    50 1   
    32    18    19 ar  
    33    18    51 1   
    34    19    20 ar  
    35    19    52 1   
    36    20    21 1   
    37    21    22 ar  
    38    21    24 ar  
    39    22    23 ar  
    40    22    53 1   
    41    23    29 ar  
    42    23    54 1   
    43    24    25 1   
    44    24    28 ar  
    45    25    26 1   
    46    25    27 1   
    47    28    29 ar  
    48    28    55 1   
    49    29    30 1   
    50    30    31 2   
    51    30    32 1   
    52    32    33 1   
    53    32    56 1   
    54    32    71 1   
    55    33    34 1   
    56    33    36 1   
    57    33    57 1   
    58    34    35 1   
    59    34    58 1   
    60    34    59 1   
    61    35    60 1   
    62    36    37 1   
    63    36    38 1   
    64    36    39 1   
    65    37    61 1   
    66    37    62 1   
    67    37    63 1   
    68    38    64 1   
    69    38    65 1   
    70    38    66 1   
    71    39    67 1   
    72    39    68 1   
    73    39    69 1   
@<TRIPOS>SUBSTRUCTURE
     1 1NJ         1 TEMP              0 ****  ****    0 ROOT
