@<TRIPOS>MOLECULE
1NJ
   70    72     1     0     0
SMALL
bcc


@<TRIPOS>ATOM
      1 O1           0.0000     0.0000     0.0000 o          1 1NJ      -0.599100
      2 C2           1.2150     0.0000     0.0000 c          1 1NJ       0.508600
      3 N3           1.8890     0.0000     1.1670 ns         1 1NJ      -0.017100
      4 C5           1.1950     0.0970     2.3730 ca         1 1NJ       0.012600
      5 C6           1.6560    -0.5820     3.4950 ca         1 1NJ      -0.116500
      6 C8           0.9720    -0.4890     4.6880 ca         1 1NJ      -0.044000
      7 C10         -0.1840     0.2900     4.7690 ca         1 1NJ      -0.304900
      8 C11         -0.9200     0.3940     6.0480 ce         1 1NJ       0.248800
      9 N12         -2.0610     1.1620     6.1260 nz         1 1NJ       0.187400
     10 N15         -0.4890    -0.2420     7.1010 n2         1 1NJ      -0.568100
     11 C17         -0.6440     0.9710     3.6400 ca         1 1NJ      -0.044000
     12 C19          0.0470     0.8780     2.4520 ca         1 1NJ      -0.116500
     13 C21          1.9550    -0.0050    -1.2820 ca         1 1NJ       0.411800
     14 N22          3.2810    -0.0100    -1.2770 nb         1 1NJ      -0.668000
     15 C23          3.9790    -0.0160    -2.3970 ca         1 1NJ       0.600600
     16 O24          5.3340    -0.0220    -2.3390 os         1 1NJ      -0.434100
     17 C25          5.9270    -0.0210    -1.0400 c3         1 1NJ       0.257700
     18 C29          3.3460    -0.0170    -3.6400 ca         1 1NJ      -0.217300
     19 C31          1.9670    -0.0120    -3.6980 ca         1 1NJ      -0.052000
     20 C33          1.2480    -0.0110    -2.4950 cp         1 1NJ      -0.045300
     21 C34         -0.2300    -0.0060    -2.5040 cp         1 1NJ       0.002000
     22 C35         -0.9300    -1.0950    -3.0190 ca         1 1NJ      -0.127000
     23 C37         -2.3070    -1.0920    -3.0270 ca         1 1NJ      -0.107000
     24 C39         -0.9360     1.0990    -1.9850 ca         1 1NJ      -0.078600
     25 C40         -0.2010     2.2540    -1.4330 c          1 1NJ       0.979200
     26 O41         -0.8790     3.3080    -0.9370 o          1 1NJ      -0.887800
     27 O43          1.0130     2.2530    -1.4240 o          1 1NJ      -0.887800
     28 C44         -2.3270     1.0960    -1.9960 ca         1 1NJ       0.004000
     29 C46         -3.0140     0.0020    -2.5200 ca         1 1NJ      -0.188600
     30 C47         -4.4910    -0.0040    -2.5330 c          1 1NJ       0.605700
     31 O48         -5.1080     0.9450    -2.0870 o          1 1NJ      -0.668100
     32 N49         -5.1560    -1.0610    -3.0390 ns         1 1NJ      -0.209900
     33 C51         -6.6210    -1.0670    -3.0520 c3         1 1NJ       0.025700
     34 C53         -7.1410    -1.5710    -1.7050 c3         1 1NJ       0.191400
     35 O56         -6.7160    -2.9210    -1.5040 oh         1 1NJ      -0.591800
     36 C58         -7.1180    -1.9880    -4.1670 c3         1 1NJ      -0.074000
     37 C59         -8.6410    -2.1100    -4.0890 c3         1 1NJ      -0.004767
     38 C63         -6.7220    -1.4040    -5.5250 c3         1 1NJ      -0.004767
     39 C67         -6.4870    -3.3730    -4.0040 c3         1 1NJ      -0.004767
     40 H1           2.8840    -0.1020     1.1690 hn         1 1NJ       0.194500
     41 H2           2.5530    -1.1870     3.4320 ha         1 1NJ       0.160500
     42 H3           1.3310    -1.0180     5.5620 ha         1 1NJ       0.090500
     43 H4          -2.7370     0.8240     5.4710 hn         1 1NJ       0.219467
     44 H5          -1.8370     2.1140     5.9130 hn         1 1NJ       0.219467
     45 H6           0.3400    -0.8010     7.0450 hn         1 1NJ       0.379400
     46 H7          -1.5390     1.5780     3.7000 ha         1 1NJ       0.090500
     47 H8          -0.3100     1.4060     1.5760 ha         1 1NJ       0.160500
     48 H9           7.0060     0.0020    -1.1360 h1         1 1NJ      -0.006967
     49 H10          5.5950     0.8520    -0.4910 h1         1 1NJ      -0.006967
     50 H11          5.6310    -0.9160    -0.5070 h1         1 1NJ      -0.006967
     51 H12          3.9260    -0.1600    -4.5440 ha         1 1NJ       0.116000
     52 H13          1.4650     0.2190    -4.6290 ha         1 1NJ       0.120000
     53 H14         -0.3890    -1.9470    -3.4130 ha         1 1NJ       0.095000
     54 H15         -2.8460    -1.9410    -3.4310 ha         1 1NJ       0.089000
     55 H17         -2.8750     1.9430    -1.6010 ha         1 1NJ       0.151000
     56 H18         -4.6500    -1.8530    -3.3820 hn         1 1NJ       0.195500
     57 H19         -6.9850    -0.0610    -3.2260 h1         1 1NJ       0.064700
     58 H20         -6.7490    -0.9480    -0.9100 h1         1 1NJ       0.001200
     59 H21         -8.2230    -1.5280    -1.6960 h1         1 1NJ       0.001200
     60 H22         -6.9110    -3.1840    -0.6200 ho         1 1NJ       0.378000
     61 H23         -9.0720    -1.1340    -3.9010 hc         1 1NJ       0.011144
     62 H24         -9.0210    -2.4970    -5.0270 hc         1 1NJ       0.011144
     63 H25         -8.9090    -2.7840    -3.2850 hc         1 1NJ       0.011144
     64 H26         -7.2320    -1.9450    -6.3130 hc         1 1NJ       0.011144
     65 H27         -7.0040    -0.3590    -5.5650 hc         1 1NJ       0.011144
     66 H28         -5.6510    -1.4950    -5.6590 hc         1 1NJ       0.011144
     67 H29         -5.7900    -3.3570    -3.1750 hc         1 1NJ       0.011144
     68 H30         -5.9620    -3.6400    -4.9130 hc         1 1NJ       0.011144
     69 H31         -7.2640    -4.1030    -3.8090 hc         1 1NJ       0.011144
     70 H123        -2.4330     1.1130     7.0540 hn         1 1NJ       0.219467
@<TRIPOS>BOND
     1     1     2 2   
     2     2     3 1   
     3     2    13 1   
     4     3     4 1   
     5     3    40 1   
     6     4     5 ar  
     7     4    12 ar  
     8     5     6 ar  
     9     5    41 1   
    10     6     7 ar  
    11     6    42 1   
    12     7     8 1   
    13     7    11 ar  
    14     8     9 1   
    15     8    10 2   
    16     9    43 1   
    17     9    44 1   
    18     9    70 1   
    19    10    45 1   
    20    11    12 ar  
    21    11    46 1   
    22    12    47 1   
    23    13    14 ar  
    24    13    20 ar  
    25    14    15 ar  
    26    15    16 1   
    27    15    18 ar  
    28    16    17 1   
    29    17    48 1   
    30    17    49 1   
    31    17    50 1   
    32    18    19 ar  
    33    18    51 1   
    34    19    20 ar  
    35    19    52 1   
    36    20    21 1   
    37    21    22 ar  
    38    21    24 ar  
    39    22    23 ar  
    40    22    53 1   
    41    23    29 ar  
    42    23    54 1   
    43    24    25 1   
    44    24    28 ar  
    45    25    26 1   
    46    25    27 1   
    47    28    29 ar  
    48    28    55 1   
    49    29    30 1   
    50    30    31 2   
    51    30    32 1   
    52    32    33 1   
    53    32    56 1   
    54    33    34 1   
    55    33    36 1   
    56    33    57 1   
    57    34    35 1   
    58    34    58 1   
    59    34    59 1   
    60    35    60 1   
    61    36    37 1   
    62    36    38 1   
    63    36    39 1   
    64    37    61 1   
    65    37    62 1   
    66    37    63 1   
    67    38    64 1   
    68    38    65 1   
    69    38    66 1   
    70    39    67 1   
    71    39    68 1   
    72    39    69 1   
@<TRIPOS>SUBSTRUCTURE
     1 1NJ         1 TEMP              0 ****  ****    0 ROOT
