@<TRIPOS>MOLECULE
molecule
   70    72     1     0     0
SMALL
bcc


@<TRIPOS>ATOM
      1 O1           0.0000     0.0000     0.0000 o          1 1NJ      -0.560100
      2 C2           1.2150     0.0000     0.0000 c          1 1NJ       0.604600
      3 N3           1.8890     0.0000     1.1670 ns         1 1NJ      -0.460100
      4 C5           1.1950     0.0970     2.3730 ca         1 1NJ       0.156600
      5 C6           1.6560    -0.5820     3.4950 ca         1 1NJ      -0.148500
      6 C8           0.9720    -0.4890     4.6880 ca         1 1NJ      -0.063000
      7 C10         -0.1840     0.2900     4.7690 ca         1 1NJ      -0.258900
      8 C11         -0.9200     0.3940     6.0480 ce         1 1NJ       0.563800
      9 N12         -2.0610     1.1620     6.1260 nz         1 1NJ      -0.801600
     10 N15         -0.4890    -0.2420     7.1010 n2         1 1NJ      -0.729100
     11 C17         -0.6440     0.9710     3.6400 ca         1 1NJ      -0.063000
     12 C19          0.0470     0.8780     2.4520 ca         1 1NJ      -0.148500
     13 C21          1.9550    -0.0050    -1.2820 ca         1 1NJ       0.473800
     14 N22          3.2810    -0.0100    -1.2770 nb         1 1NJ      -0.783000
     15 C23          3.9790    -0.0160    -2.3970 ca         1 1NJ       0.642600
     16 O24          5.3340    -0.0220    -2.3390 os         1 1NJ      -0.446100
     17 C25          5.9270    -0.0210    -1.0400 c3         1 1NJ       0.140700
     18 C29          3.3460    -0.0170    -3.6400 ca         1 1NJ      -0.239300
     19 C31          1.9670    -0.0120    -3.6980 ca         1 1NJ      -0.073000
     20 C33          1.2480    -0.0110    -2.4950 cp         1 1NJ      -0.069300
     21 C34         -0.2300    -0.0060    -2.5040 cp         1 1NJ      -0.007000
     22 C35         -0.9300    -1.0950    -3.0190 ca         1 1NJ      -0.145000
     23 C37         -2.3070    -1.0920    -3.0270 ca         1 1NJ      -0.125000
     24 C39         -0.9360     1.0990    -1.9850 ca         1 1NJ      -0.074600
     25 C40         -0.2010     2.2540    -1.4330 c          1 1NJ       0.884200
     26 O41         -0.8790     3.3080    -0.9370 o          1 1NJ      -0.834300
     27 O43          1.0130     2.2530    -1.4240 o          1 1NJ      -0.834300
     28 C44         -2.3270     1.0960    -1.9960 ca         1 1NJ      -0.033000
     29 C46         -3.0140     0.0020    -2.5200 ca         1 1NJ      -0.170600
     30 C47         -4.4910    -0.0040    -2.5330 c          1 1NJ       0.675700
     31 O48         -5.1080     0.9450    -2.0870 o          1 1NJ      -0.629100
     32 N49         -5.1560    -1.0610    -3.0390 ns         1 1NJ      -0.580900
     33 C51         -6.6210    -1.0670    -3.0520 c3         1 1NJ       0.132700
     34 C53         -7.1410    -1.5710    -1.7050 c3         1 1NJ       0.118400
     35 O56         -6.7160    -2.9210    -1.5040 oh         1 1NJ      -0.610800
     36 C58         -7.1180    -1.9880    -4.1670 c3         1 1NJ      -0.078000
     37 C59         -8.6410    -2.1100    -4.0890 c3         1 1NJ      -0.083100
     38 C63         -6.7220    -1.4040    -5.5250 c3         1 1NJ      -0.083100
     39 C67         -6.4870    -3.3730    -4.0040 c3         1 1NJ      -0.083100
     40 H1           2.8860    -0.0880     1.1690 hn         1 1NJ       0.353500
     41 H2           2.5530    -1.1870     3.4320 ha         1 1NJ       0.189000
     42 H3           1.3310    -1.0180     5.5620 ha         1 1NJ       0.131500
     43 H4          -1.8430     2.1080     5.8810 hn         1 1NJ       0.461467
     44 H5          -2.7490     0.8030     5.4940 hn         1 1NJ       0.461467
     45 H6          -0.9860    -0.1730     7.9670 hn         1 1NJ       0.414400
     46 H7          -1.5390     1.5780     3.7000 ha         1 1NJ       0.131500
     47 H8          -0.3100     1.4060     1.5760 ha         1 1NJ       0.189000
     48 H9           7.0060    -0.0450    -1.1360 h1         1 1NJ       0.038700
     49 H10          5.6310     0.8750    -0.5080 h1         1 1NJ       0.038700
     50 H11          5.5950    -0.8930    -0.4900 h1         1 1NJ       0.038700
     51 H12          3.9250    -0.1680    -4.5430 ha         1 1NJ       0.144000
     52 H13          1.4650     0.2180    -4.6290 ha         1 1NJ       0.155000
     53 H14         -0.3890    -1.9470    -3.4130 ha         1 1NJ       0.118000
     54 H15         -2.8460    -1.9410    -3.4310 ha         1 1NJ       0.109000
     55 H17         -2.8750     1.9430    -1.6010 ha         1 1NJ       0.180000
     56 H18         -4.6500    -1.8430    -3.4040 hn         1 1NJ       0.323500
     57 H19         -6.9850    -0.0610    -3.2260 h1         1 1NJ       0.086700
     58 H20         -8.2230    -1.5280    -1.6970 h1         1 1NJ       0.031700
     59 H21         -6.7490    -0.9480    -0.9100 h1         1 1NJ       0.031700
     60 H22         -6.8410    -3.1590    -0.6010 ho         1 1NJ       0.389000
     61 H23         -8.9110    -2.7370    -3.2480 hc         1 1NJ       0.037922
     62 H24         -9.0150    -2.5520    -5.0050 hc         1 1NJ       0.037922
     63 H25         -9.0760    -1.1260    -3.9600 hc         1 1NJ       0.037922
     64 H26         -7.2210    -1.9540    -6.3140 hc         1 1NJ       0.037922
     65 H27         -5.6500    -1.4830    -5.6530 hc         1 1NJ       0.037922
     66 H28         -7.0160    -0.3630    -5.5700 hc         1 1NJ       0.037922
     67 H29         -7.2610    -4.0980    -3.7820 hc         1 1NJ       0.037922
     68 H30         -5.7700    -3.3500    -3.1930 hc         1 1NJ       0.037922
     69 H31         -5.9850    -3.6510    -4.9230 hc         1 1NJ       0.037922
     70 H123        -2.4210     1.1320     7.0590 hn         1 1NJ       0.461467
@<TRIPOS>BOND
     1    35    34 1   
     2    34    33 1   
     3    26    25 1   
     4    38    36 1   
     5    18    19 ar  
     6    18    15 ar  
     7    19    20 ar  
     8    33    32 1   
     9    33    36 1   
    10    32    30 1   
    11    16    15 1   
    12    16    17 1   
    13    25    24 1   
    14    25    27 1   
    15    36    39 1   
    16    36    37 1   
    17    15    14 ar  
    18    24    28 ar  
    19    24    21 ar  
    20    20    21 1   
    21    20    13 ar  
    22    28    29 ar  
    23    21    22 ar  
    24    29    30 1   
    25    29    23 ar  
    26    30    31 2   
    27    22    23 ar  
    28    14    13 ar  
    29    13     2 1   
    30     2     3 1   
    31     2     1 2   
    32     3     4 1   
    33    12     4 ar  
    34    12    11 ar  
    35     4     5 ar  
    36    11     7 ar  
    37     5     6 ar  
    38     7     6 ar  
    39     7     8 1   
    40    10     8 2   
    41     8     9 1   
    42     3    40 1   
    43     5    41 1   
    44     6    42 1   
    45     9    43 1   
    46     9    44 1   
    47    10    45 1   
    48    11    46 1   
    49    12    47 1   
    50    17    48 1   
    51    17    49 1   
    52    17    50 1   
    53    18    51 1   
    54    19    52 1   
    55    22    53 1   
    56    23    54 1   
    57    28    55 1   
    58    32    56 1   
    59    33    57 1   
    60    34    58 1   
    61    34    59 1   
    62    35    60 1   
    63    37    61 1   
    64    37    62 1   
    65    37    63 1   
    66    38    64 1   
    67    38    65 1   
    68    38    66 1   
    69    39    67 1   
    70    39    68 1   
    71    39    69 1   
    72    70     9 1   
@<TRIPOS>SUBSTRUCTURE
     1 1NJ         1 TEMP              0 ****  ****    0 ROOT
