@<TRIPOS>MOLECULE
1NK
   72    75     1     0     0
SMALL
bcc


@<TRIPOS>ATOM
      1 C1           1.5650    -1.8980    -0.3440 c3         1 1NK      -0.109767
      2 C2           2.8960    -1.1630    -0.2140 c3         1 1NK      -0.064000
      3 C3           3.2430    -1.0160     1.2580 c3         1 1NK      -0.109767
      4 C4           3.9730    -1.9900    -0.9060 c3         1 1NK      -0.109767
      5 C5           2.7600     0.2040    -0.9350 c3         1 1NK       0.125500
      6 C6           1.5720     1.0190    -0.3810 c3         1 1NK       0.106400
      7 O7           1.5730     2.2690    -1.0530 oh         1 1NK      -0.629800
      8 N8           4.0210     1.0160    -0.8900 ny         1 1NK      -0.678800
      9 C9           5.0490     0.6480    -1.9610 c          1 1NK       0.593700
     10 O10          4.5900     0.4250    -3.0740 o          1 1NK      -0.461100
     11 C11          6.4350     0.6950    -1.5190 ca         1 1NK      -0.228600
     12 C12          7.4190     1.0700    -2.4530 ca         1 1NK      -0.070000
     13 C13          8.7410     1.1750    -2.0450 ca         1 1NK      -0.129000
     14 C14          9.1160     0.9040    -0.7140 cp         1 1NK       0.057000
     15 C15          8.1450     0.4870     0.2070 ca         1 1NK      -0.119600
     16 C16          6.8150     0.3790    -0.2100 ca         1 1NK      -0.081000
     17 C17          8.3710     0.1470     1.6890 c          1 1NK       0.923200
     18 O18          7.4490     0.5160     2.4640 o          1 1NK      -0.800800
     19 O19          9.3930    -0.5060     2.0180 o          1 1NK      -0.800800
     20 C20         10.5190     1.0990    -0.3430 cp         1 1NK      -0.170300
     21 C21         10.9370     2.3230     0.2110 ca         1 1NK      -0.043000
     22 C22         12.2720     2.5130     0.5330 ca         1 1NK      -0.248300
     23 C23         13.1700     1.4370     0.2930 ca         1 1NK       0.636600
     24 N24         12.7970     0.2390    -0.2220 nb         1 1NK      -0.699000
     25 C25         11.4890     0.0920    -0.5280 ca         1 1NK       0.436800
     26 C26         11.0760    -1.2560    -1.0930 c          1 1NK       0.581600
     27 O27         11.2310    -1.5140    -2.2990 o          1 1NK      -0.589100
     28 N28         10.5340    -2.1040    -0.1490 ns         1 1NK      -0.454100
     29 C29         10.0470    -3.3970    -0.3680 ca         1 1NK       0.098600
     30 C30          9.4120    -4.0570     0.7420 ca         1 1NK      -0.168000
     31 C31          8.9240    -5.3310     0.6130 ca         1 1NK      -0.087000
     32 C32          9.0140    -6.0350    -0.6150 ca         1 1NK      -0.207300
     33 C33          9.6430    -5.3930    -1.7120 ca         1 1NK       0.039000
     34 C34         10.1530    -4.0790    -1.5760 ca         1 1NK      -0.191000
     35 C35          9.7500    -6.0940    -2.9450 ca         1 1NK      -0.282300
     36 C36          9.2290    -7.3700    -3.0290 ca         1 1NK       0.423200
     37 N37          8.6040    -8.0190    -2.0090 nb         1 1NK      -0.755000
     38 C38          8.5090    -7.3860    -0.8170 ca         1 1NK       0.653200
     39 N39          7.9650    -8.0860     0.2700 nv         1 1NK      -0.928500
     40 O40         14.4820     1.7010     0.6250 os         1 1NK      -0.447100
     41 C41         15.4290     0.6410     0.4740 c3         1 1NK       0.123700
     42 H1           1.1960    -1.8690    -1.3970 hc         1 1NK       0.055922
     43 H2           0.7960    -1.4500     0.3300 hc         1 1NK       0.055922
     44 H3           1.7010    -2.9670    -0.0470 hc         1 1NK       0.055922
     45 H4           2.5270    -0.3380     1.7810 hc         1 1NK       0.055922
     46 H5           4.2830    -0.6380     1.4130 hc         1 1NK       0.055922
     47 H6           3.1830    -2.0210     1.7480 hc         1 1NK       0.055922
     48 H7           3.9660    -3.0320    -0.5010 hc         1 1NK       0.055922
     49 H8           4.9920    -1.5650    -0.7240 hc         1 1NK       0.055922
     50 H9           3.7900    -2.0360    -2.0060 hc         1 1NK       0.055922
     51 H10          2.5550     0.0050    -2.0340 hx         1 1NK       0.123700
     52 H11          1.6670     1.1860     0.7250 h1         1 1NK       0.064700
     53 H12          0.6250     0.4570    -0.6000 h1         1 1NK       0.064700
     54 H13          0.7410     2.7100    -0.8420 ho         1 1NK       0.439000
     55 H14          3.7690     2.0020    -1.0480 hn         1 1NK       0.467300
     56 H15          7.1350     1.2800    -3.4960 ha         1 1NK       0.149000
     57 H16          9.5130     1.4660    -2.7750 ha         1 1NK       0.159000
     58 H17          6.1030     0.0190     0.5540 ha         1 1NK       0.151000
     59 H19         10.2030     3.1200     0.3980 ha         1 1NK       0.147000
     60 H20         12.6440     3.4460     0.9720 ha         1 1NK       0.161000
     61 H21         10.3770    -1.7210     0.7750 hn         1 1NK       0.384500
     62 H22          9.3230    -3.5250     1.7050 ha         1 1NK       0.161000
     63 H23          8.4680    -5.8050     1.4950 ha         1 1NK       0.128000
     64 H24         10.6380    -3.6170    -2.4520 ha         1 1NK       0.173000
     65 H25         10.2420    -5.6170    -3.8020 ha         1 1NK       0.145000
     66 H26          9.2860    -7.9560    -3.9640 h4         1 1NK       0.014100
     67 H27          7.5090    -8.9450     0.0500 hn         1 1NK       0.401300
     68 H28          7.4650    -7.5190     0.9150 hn         1 1NK       0.401300
     69 H29         15.1500    -0.2300     1.1140 h1         1 1NK       0.052367
     70 H30         16.3830     1.1080     0.8280 h1         1 1NK       0.052367
     71 H31         15.5080     0.3350    -0.5960 h1         1 1NK       0.052367
     72 H82          4.4450     0.9390     0.0420 hn         1 1NK       0.467300
@<TRIPOS>BOND
     1     1     2 1   
     2     1    42 1   
     3     1    43 1   
     4     1    44 1   
     5     2     3 1   
     6     2     4 1   
     7     2     5 1   
     8     3    45 1   
     9     3    46 1   
    10     3    47 1   
    11     4    48 1   
    12     4    49 1   
    13     4    50 1   
    14     5     6 1   
    15     5     8 1   
    16     5    51 1   
    17     6     7 1   
    18     6    52 1   
    19     6    53 1   
    20     7    54 1   
    21     8     9 1   
    22     8    55 1   
    23     8    72 1   
    24     9    10 2   
    25     9    11 1   
    26    11    12 ar  
    27    11    16 ar  
    28    12    13 ar  
    29    12    56 1   
    30    13    14 ar  
    31    13    57 1   
    32    14    15 ar  
    33    14    20 1   
    34    15    16 ar  
    35    15    17 1   
    36    16    58 1   
    37    17    18 1   
    38    17    19 1   
    39    20    21 ar  
    40    20    25 ar  
    41    21    22 ar  
    42    21    59 1   
    43    22    23 ar  
    44    22    60 1   
    45    23    24 ar  
    46    23    40 1   
    47    24    25 ar  
    48    25    26 1   
    49    26    27 2   
    50    26    28 1   
    51    28    29 1   
    52    28    61 1   
    53    29    30 ar  
    54    29    34 ar  
    55    30    31 ar  
    56    30    62 1   
    57    31    32 ar  
    58    31    63 1   
    59    32    33 ar  
    60    32    38 ar  
    61    33    34 ar  
    62    33    35 ar  
    63    34    64 1   
    64    35    36 ar  
    65    35    65 1   
    66    36    37 ar  
    67    36    66 1   
    68    37    38 ar  
    69    38    39 1   
    70    39    67 1   
    71    39    68 1   
    72    40    41 1   
    73    41    69 1   
    74    41    70 1   
    75    41    71 1   
@<TRIPOS>SUBSTRUCTURE
     1 1NK         1 TEMP              0 ****  ****    0 ROOT
