@<TRIPOS>MOLECULE
molecule
   71    74     1     0     0
SMALL
bcc


@<TRIPOS>ATOM
      1 C1           0.0000     0.0000     0.0000 c3         1 1NK      -0.078100
      2 C2           1.5310     0.0000     0.0000 c3         1 1NK      -0.077000
      3 C3           2.0400     0.0000     1.4430 c3         1 1NK      -0.078100
      4 C4           2.0410    -1.2480    -0.7230 c3         1 1NK      -0.078100
      5 C5           2.0400     1.2500    -0.7210 c3         1 1NK       0.132700
      6 C6           1.6660     1.1740    -2.2020 c3         1 1NK       0.121400
      7 O7           0.2500     1.0200    -2.3270 oh         1 1NK      -0.606800
      8 N8           1.4300     2.4410    -0.1240 ns         1 1NK      -0.587900
      9 C9           1.9820     3.0040     0.9700 c          1 1NK       0.677700
     10 O10          2.9840     2.5240     1.4610 o          1 1NK      -0.618100
     11 C11          1.3670     4.2050     1.5720 ca         1 1NK      -0.175600
     12 C12          0.2120     4.7570     1.0060 ca         1 1NK      -0.134000
     13 C13         -0.3670     5.8750     1.5620 ca         1 1NK      -0.151000
     14 C14          0.1930     6.4660     2.6930 cp         1 1NK      -0.004000
     15 C15          1.3550     5.9170     3.2690 ca         1 1NK      -0.058600
     16 C16          1.9340     4.7820     2.7060 ca         1 1NK      -0.025000
     17 C17          1.9540     6.5370     4.4670 c          1 1NK       0.889200
     18 O18          3.0660     6.0090     5.0140 o          1 1NK      -0.829800
     19 O19          1.4450     7.5240     4.9570 o          1 1NK      -0.829800
     20 C20         -0.4310     7.6680     3.2870 cp         1 1NK      -0.075300
     21 C21         -1.7090     7.5980     3.8580 ca         1 1NK      -0.071000
     22 C22         -2.2500     8.7460     4.4010 ca         1 1NK      -0.259300
     23 C23         -1.5170     9.9320     4.3670 ca         1 1NK       0.636600
     24 N24         -0.3150     9.9740     3.8240 nb         1 1NK      -0.779000
     25 C25          0.2490     8.8960     3.2950 ca         1 1NK       0.488800
     26 C26          1.6020     8.9900     2.7020 c          1 1NK       0.596600
     27 O27          2.1210     8.0060     2.2130 o          1 1NK      -0.558100
     28 N28          2.2590    10.1670     2.7060 ns         1 1NK      -0.470100
     29 C29          3.5730    10.2350     2.2360 ca         1 1NK       0.096600
     30 C30          4.4890    11.0850     2.8630 ca         1 1NK      -0.154000
     31 C31          5.7750    11.1720     2.4270 ca         1 1NK      -0.095000
     32 C32          6.1940    10.4000     1.3330 ca         1 1NK      -0.217300
     33 C33          5.2710     9.5360     0.6930 ca         1 1NK       0.040000
     34 C34          3.9540     9.4580     1.1610 ca         1 1NK      -0.125000
     35 C35          5.7220     8.7730    -0.4050 ca         1 1NK      -0.293300
     36 C36          7.0160     8.8960    -0.8020 ca         1 1NK       0.452200
     37 N37          7.8650     9.7110    -0.1880 nb         1 1NK      -0.803000
     38 C38          7.5170    10.4550     0.8440 ca         1 1NK       0.721200
     39 N39          8.4470    11.2880     1.4440 nv         1 1NK      -1.013500
     40 O40         -2.0480    11.0600     4.8990 os         1 1NK      -0.456100
     41 C41         -1.2530    12.2450     4.8350 c3         1 1NK       0.141700
     42 H1          -0.3610    -0.5470     0.8620 hc         1 1NK       0.035589
     43 H2          -0.3610     1.0200     0.0430 hc         1 1NK       0.035589
     44 H3          -0.3610    -0.4730    -0.9050 hc         1 1NK       0.035589
     45 H4           1.8910    -0.9810     1.8780 hc         1 1NK       0.035589
     46 H5           1.4940     0.7380     2.0190 hc         1 1NK       0.035589
     47 H6           3.0960     0.2430     1.4530 hc         1 1NK       0.035589
     48 H7           3.0940    -1.1320    -0.9450 hc         1 1NK       0.035589
     49 H8           1.4900    -1.3820    -1.6460 hc         1 1NK       0.035589
     50 H9           1.8990    -2.1160    -0.0890 hc         1 1NK       0.035589
     51 H10          3.1170     1.3090    -0.6240 h1         1 1NK       0.082700
     52 H11          2.1630     0.3260    -2.6570 h1         1 1NK       0.027200
     53 H12          1.9760     2.0840    -2.7000 h1         1 1NK       0.027200
     54 H13         -0.0100     1.2120    -3.2130 ho         1 1NK       0.389000
     55 H14          0.6380     2.8690    -0.5600 hn         1 1NK       0.320500
     56 H15         -0.2260     4.3040     0.1250 ha         1 1NK       0.101000
     57 H16         -1.2600     6.2980     1.1170 ha         1 1NK       0.110000
     58 H17          2.7790     4.3080     3.1910 ha         1 1NK       0.184000
     59 H19         -2.2590     6.6650     3.8730 ha         1 1NK       0.141000
     60 H20         -3.2360     8.7260     4.8500 ha         1 1NK       0.134000
     61 H21          1.7970    10.9970     3.0200 hn         1 1NK       0.333500
     62 H22          4.1710    11.6830     3.7080 ha         1 1NK       0.130000
     63 H23          6.4740    11.8350     2.9230 ha         1 1NK       0.114000
     64 H24          3.2080     8.9200     0.5890 ha         1 1NK       0.164000
     65 H25          5.0480     8.1010    -0.9230 ha         1 1NK       0.140000
     66 H26          7.3650     8.3110    -1.6440 h4         1 1NK       0.007100
     67 H27          8.1800    11.8570     2.2230 hn         1 1NK       0.435300
     68 H28          9.3840    11.3240     1.0960 hn         1 1NK       0.435300
     69 H29         -0.9950    12.4520     3.8040 h1         1 1NK       0.037367
     70 H30         -0.3470    12.1030     5.4120 h1         1 1NK       0.037367
     71 H31         -1.8130    13.0780     5.2420 h1         1 1NK       0.037367
@<TRIPOS>BOND
     1     7     6 1
     2     6     5 1
     3     3     2 1
     4    19    17 1
     5     1     2 1
     6     5     2 1
     7     5     8 1
     8     2     4 1
     9    22    21 ar
    10    22    23 ar
    11     8     9 1
    12    21    20 ar
    13    17    15 1
    14    17    18 1
    15    40    23 1
    16    40    41 1
    17    23    24 ar
    18    16    15 ar
    19    16    11 ar
    20    15    14 ar
    21     9    11 1
    22     9    10 2
    23    14    20 1
    24    14    13 ar
    25    20    25 ar
    26    11    12 ar
    27    13    12 ar
    28    24    25 ar
    29    25    26 1
    30    26    28 1
    31    26    27 2
    32    28    29 1
    33    30    29 ar
    34    30    31 ar
    35    29    34 ar
    36    31    32 ar
    37    34    33 ar
    38    32    33 ar
    39    32    38 ar
    40    33    35 ar
    41    39    38 1
    42    38    37 ar
    43    35    36 ar
    44    37    36 ar
    45     1    42 1
    46     1    43 1
    47     1    44 1
    48     3    45 1
    49     3    46 1
    50     3    47 1
    51     4    48 1
    52     4    49 1
    53     4    50 1
    54     5    51 1
    55     6    52 1
    56     6    53 1
    57     7    54 1
    58     8    55 1
    59    12    56 1
    60    13    57 1
    61    16    58 1
    62    21    59 1
    63    22    60 1
    64    28    61 1
    65    30    62 1
    66    31    63 1
    67    34    64 1
    68    35    65 1
    69    36    66 1
    70    39    67 1
    71    39    68 1
    72    41    69 1
    73    41    70 1
    74    41    71 1
@<TRIPOS>SUBSTRUCTURE
     1 1NK         1 TEMP              0 ****  ****    0 ROOT
