@<TRIPOS>MOLECULE
1NL
   70    72     1     0     0
SMALL
bcc


@<TRIPOS>ATOM
      1 C1           0.2620     0.9210    -1.0480 c3         1 1NL      -0.109433
      2 C2           1.7480     0.6230    -0.9210 c3         1 1NL      -0.064000
      3 C3           2.2330     1.0690     0.4540 c3         1 1NL      -0.109433
      4 C4           2.5090     1.4100    -1.9820 c3         1 1NL      -0.109433
      5 C5           2.0700    -0.8850    -1.0800 c3         1 1NL       0.121500
      6 C6           1.5180    -1.7100     0.1040 c3         1 1NL       0.108400
      7 O7           1.7480    -3.0780    -0.1920 oh         1 1NL      -0.632800
      8 N8           1.5880    -1.4440    -2.3880 ny         1 1NL      -0.675800
      9 C9           2.5470    -1.2440    -3.5570 c          1 1NL       0.589700
     10 O10          3.7390    -1.3290    -3.2950 o          1 1NL      -0.446100
     11 C11          1.8950    -1.0550    -4.8490 ca         1 1NL      -0.227600
     12 C12          2.4890    -1.6370    -5.9830 ca         1 1NL      -0.065000
     13 C13          1.8660    -1.5100    -7.2160 ca         1 1NL      -0.134000
     14 C14          0.6520    -0.8070    -7.3560 cp         1 1NL       0.062000
     15 C15          0.0880    -0.1860    -6.2310 ca         1 1NL      -0.117600
     16 C16          0.7220    -0.3070    -4.9900 ca         1 1NL      -0.078000
     17 C17         -1.1830     0.6560    -6.2260 c          1 1NL       0.900200
     18 O18         -1.2240     1.6030    -5.3870 o          1 1NL      -0.809800
     19 O19         -2.1060     0.4020    -7.0420 o          1 1NL      -0.809800
     20 C20          0.0240    -0.8380    -8.6790 cp         1 1NL      -0.150300
     21 C21         -0.4390    -2.0890    -9.1490 ca         1 1NL      -0.050000
     22 C22         -1.0180    -2.1950   -10.4000 ca         1 1NL      -0.236300
     23 C23         -1.1230    -1.0080   -11.1810 ca         1 1NL       0.645600
     24 N24         -0.6950     0.2060   -10.7640 nb         1 1NL      -0.713000
     25 C25         -0.1330     0.2700    -9.5310 ca         1 1NL       0.436800
     26 C26          0.3220     1.6560    -9.1290 c          1 1NL       0.590600
     27 O27          1.4720     2.0680    -9.3470 o          1 1NL      -0.581100
     28 N28         -0.6790     2.4300    -8.5520 ns         1 1NL      -0.457100
     29 C29         -0.4990     3.7220    -8.0560 ca         1 1NL       0.088600
     30 C30         -1.2730     4.1550    -6.9470 ca         1 1NL      -0.075000
     31 C31         -1.1880     5.4730    -6.5050 ca         1 1NL      -0.107000
     32 C32         -0.3420     6.3860    -7.1240 ca         1 1NL      -0.139000
     33 C33          0.4560     5.9600    -8.1980 ca         1 1NL      -0.198600
     34 C34          0.3960     4.6340    -8.6570 ca         1 1NL      -0.081000
     35 C35          1.3860     6.8360    -8.8870 c          1 1NL       0.585700
     36 O36          2.3760     6.6010    -9.5610 o          1 1NL      -0.420100
     37 N37          1.0640     8.3340    -8.8050 nz         1 1NL      -0.770400
     38 O38         -1.6990    -1.1890   -12.4180 os         1 1NL      -0.438100
     39 C39         -1.8730    -0.0380   -13.2470 c3         1 1NL       0.122700
     40 H1          -0.0860     0.8660    -2.1090 hc         1 1NL       0.055589
     41 H2          -0.3500     0.2260    -0.4260 hc         1 1NL       0.055589
     42 H3           0.0650     1.9630    -0.6930 hc         1 1NL       0.055589
     43 H4           3.2740     0.7120     0.6440 hc         1 1NL       0.055589
     44 H5           2.2300     2.1860     0.5070 hc         1 1NL       0.055589
     45 H6           1.5590     0.6860     1.2570 hc         1 1NL       0.055589
     46 H7           2.3860     2.5050    -1.7970 hc         1 1NL       0.055589
     47 H8           2.1190     1.1930    -3.0070 hc         1 1NL       0.055589
     48 H9           3.5980     1.1640    -1.9490 hc         1 1NL       0.055589
     49 H10          3.1990    -1.0080    -1.0810 hx         1 1NL       0.126700
     50 H11          0.4180    -1.5400     0.2480 h1         1 1NL       0.066700
     51 H12          2.0730    -1.4060     1.0320 h1         1 1NL       0.066700
     52 H13          1.6590    -3.5740     0.6320 ho         1 1NL       0.446000
     53 H14          1.4670    -2.4620    -2.2750 hn         1 1NL       0.467800
     54 H15          3.4370    -2.1900    -5.8880 ha         1 1NL       0.154000
     55 H16          2.3280    -1.9690    -8.1060 ha         1 1NL       0.159000
     56 H17          0.2720     0.2600    -4.1550 ha         1 1NL       0.158000
     57 H19         -0.3460    -2.9770    -8.5050 ha         1 1NL       0.148000
     58 H20         -1.4000    -3.1440   -10.7980 ha         1 1NL       0.169000
     59 H21         -1.5130     1.9460    -8.2390 hn         1 1NL       0.389500
     60 H22         -1.9090     3.4200    -6.4020 ha         1 1NL       0.227000
     61 H23         -1.7950     5.7880    -5.6410 ha         1 1NL       0.159000
     62 H24         -0.2930     7.4110    -6.7310 ha         1 1NL       0.113000
     63 H25          1.0580     4.3040    -9.4790 ha         1 1NL       0.192000
     64 H26          1.2350     8.6710    -7.8550 hn         1 1NL       0.460467
     65 H27          0.0790     8.4820    -9.0360 hn         1 1NL       0.460467
     66 H28         -2.3610    -0.4630   -14.1610 h1         1 1NL       0.054033
     67 H29         -0.8860     0.4180   -13.4970 h1         1 1NL       0.054033
     68 H30         -2.5380     0.7070   -12.7500 h1         1 1NL       0.054033
     69 H373         1.6560     8.8550    -9.4590 hn         1 1NL       0.460467
     70 H82          0.6750    -1.0350    -2.6190 hn         1 1NL       0.467800
@<TRIPOS>BOND
     1     1     2 1   
     2     1    40 1   
     3     1    41 1   
     4     1    42 1   
     5     2     3 1   
     6     2     4 1   
     7     2     5 1   
     8     3    43 1   
     9     3    44 1   
    10     3    45 1   
    11     4    46 1   
    12     4    47 1   
    13     4    48 1   
    14     5     6 1   
    15     5     8 1   
    16     5    49 1   
    17     6     7 1   
    18     6    50 1   
    19     6    51 1   
    20     7    52 1   
    21     8     9 1   
    22     8    53 1   
    23     8    70 1   
    24     9    10 2   
    25     9    11 1   
    26    11    12 ar  
    27    11    16 ar  
    28    12    13 ar  
    29    12    54 1   
    30    13    14 ar  
    31    13    55 1   
    32    14    15 ar  
    33    14    20 1   
    34    15    16 ar  
    35    15    17 1   
    36    16    56 1   
    37    17    18 1   
    38    17    19 1   
    39    20    21 ar  
    40    20    25 ar  
    41    21    22 ar  
    42    21    57 1   
    43    22    23 ar  
    44    22    58 1   
    45    23    24 ar  
    46    23    38 1   
    47    24    25 ar  
    48    25    26 1   
    49    26    27 2   
    50    26    28 1   
    51    28    29 1   
    52    28    59 1   
    53    29    30 ar  
    54    29    34 ar  
    55    30    31 ar  
    56    30    60 1   
    57    31    32 ar  
    58    31    61 1   
    59    32    33 ar  
    60    32    62 1   
    61    33    34 ar  
    62    33    35 1   
    63    34    63 1   
    64    35    36 2   
    65    35    37 1   
    66    37    64 1   
    67    37    65 1   
    68    37    69 1   
    69    38    39 1   
    70    39    66 1   
    71    39    67 1   
    72    39    68 1   
@<TRIPOS>SUBSTRUCTURE
     1 1NL         1 TEMP              0 ****  ****    0 ROOT
