@<TRIPOS>MOLECULE
1NL
   69    71     1     0     0
SMALL
bcc


@<TRIPOS>ATOM
      1 C1           0.0000     0.0000     0.0000 c3         1 1NL      -0.004433
      2 C2           1.5300     0.0000     0.0000 c3         1 1NL      -0.075000
      3 C3           2.0400     0.0000     1.4420 c3         1 1NL      -0.004433
      4 C4           2.0410    -1.2490    -0.7220 c3         1 1NL      -0.004433
      5 C5           2.0400     1.2500    -0.7220 c3         1 1NL       0.025700
      6 C6           1.6540     1.1780    -2.2000 c3         1 1NL       0.192400
      7 O7           0.2360     1.0430    -2.3170 oh         1 1NL      -0.590800
      8 N8           1.4380     2.4420    -0.1180 ns         1 1NL      -0.213900
      9 C9           2.0650     3.6310    -0.2060 c          1 1NL       0.605700
     10 O10          3.1290     3.7160    -0.7870 o          1 1NL      -0.666100
     11 C11          1.4580     4.8330     0.4030 ca         1 1NL      -0.191600
     12 C12          0.2340     4.7340     1.0710 ca         1 1NL      -0.112000
     13 C13         -0.3380     5.8500     1.6410 ca         1 1NL      -0.131000
     14 C14          0.3000     7.0860     1.5560 cp         1 1NL       0.000000
     15 C15          1.5350     7.1930     0.8850 ca         1 1NL      -0.069600
     16 C16          2.1110     6.0610     0.3160 ca         1 1NL       0.004000
     17 C17          2.2200     8.4970     0.7970 c          1 1NL       0.979200
     18 O18          3.4050     8.5950     0.1640 o          1 1NL      -0.884300
     19 O19          1.7140     9.4830     1.2950 o          1 1NL      -0.884300
     20 C20         -0.3160     8.2820     2.1690 cp         1 1NL      -0.045300
     21 C21         -0.4760     8.3700     3.5570 ca         1 1NL      -0.042000
     22 C22         -1.0560     9.5060     4.0830 ca         1 1NL      -0.222300
     23 C23         -1.4650    10.5260     3.2250 ca         1 1NL       0.602600
     24 N24         -1.3060    10.4210     1.9180 nb         1 1NL      -0.669000
     25 C25         -0.7480     9.3520     1.3680 ca         1 1NL       0.411800
     26 C26         -0.5840     9.2820    -0.1010 c          1 1NL       0.514600
     27 O27         -0.0770     8.3020    -0.6110 o          1 1NL      -0.610100
     28 N28         -0.9960    10.3060    -0.8750 ns         1 1NL      -0.033100
     29 C29         -0.7510    10.2860    -2.2510 ca         1 1NL      -0.037400
     30 C30         -0.4550    11.4660    -2.9220 ca         1 1NL      -0.066000
     31 C31         -0.2120    11.4520    -4.2830 ca         1 1NL      -0.056000
     32 C32         -0.2630    10.2640    -4.9850 ca         1 1NL      -0.142000
     33 C33         -0.5590     9.0730    -4.3200 ca         1 1NL      -0.213600
     34 C34         -0.7970     9.0870    -2.9470 ca         1 1NL       0.002000
     35 C35         -0.6140     7.8000    -5.0700 c          1 1NL       0.351700
     36 O36         -0.8710     6.7630    -4.4890 o          1 1NL      -0.429100
     37 N37         -0.3780     7.7870    -6.3970 nz         1 1NL       0.197600
     38 O38         -2.0350    11.6420     3.7410 os         1 1NL      -0.434100
     39 C39         -2.4340    12.6540     2.8140 c3         1 1NL       0.258700
     40 H1          -0.3610    -0.1040     1.0160 hc         1 1NL       0.010811
     41 H2          -0.3610     0.9320    -0.4180 hc         1 1NL       0.010811
     42 H3          -0.3610    -0.8280    -0.5980 hc         1 1NL       0.010811
     43 H4           3.1080     0.1820     1.4470 hc         1 1NL       0.010811
     44 H5           1.8360    -0.9610     1.8970 hc         1 1NL       0.010811
     45 H6           1.5380     0.7790     2.0030 hc         1 1NL       0.010811
     46 H7           1.4940    -1.3800    -1.6480 hc         1 1NL       0.010811
     47 H8           1.8940    -2.1170    -0.0900 hc         1 1NL       0.010811
     48 H9           3.0960    -1.1340    -0.9390 hc         1 1NL       0.010811
     49 H10          3.1180     1.3040    -0.6320 h1         1 1NL       0.064700
     50 H11          1.9730     2.0840    -2.7010 h1         1 1NL       0.001200
     51 H12          2.1370     0.3230    -2.6590 h1         1 1NL       0.001200
     52 H13         -0.0280     1.2440    -3.1990 ho         1 1NL       0.375000
     53 H14          0.5740     2.3670     0.3820 hn         1 1NL       0.195500
     54 H15         -0.2670     3.7760     1.1400 ha         1 1NL       0.088000
     55 H16         -1.2870     5.7660     2.1570 ha         1 1NL       0.093000
     56 H17          3.0600     6.1360    -0.2020 ha         1 1NL       0.153000
     57 H19         -0.1500     7.5640     4.2040 ha         1 1NL       0.114000
     58 H20         -1.1930     9.6050     5.1530 ha         1 1NL       0.117000
     59 H21         -1.5100    11.0630    -0.4700 hn         1 1NL       0.194500
     60 H22         -0.4140    12.4010    -2.3770 ha         1 1NL       0.127000
     61 H23          0.0180    12.3750    -4.8000 ha         1 1NL       0.115000
     62 H24         -0.0740    10.2570    -6.0520 ha         1 1NL       0.070000
     63 H25         -1.0280     8.1650    -2.4260 ha         1 1NL       0.175000
     64 H26         -0.4590     6.8510    -6.7420 hn         1 1NL       0.241133
     65 H27         -1.0450     8.3720    -6.8600 hn         1 1NL       0.241133
     66 H28         -3.1450    12.2390     2.1100 h1         1 1NL      -0.007300
     67 H29         -1.5650    13.0160     2.2780 h1         1 1NL      -0.007300
     68 H30         -2.8950    13.4740     3.3500 h1         1 1NL      -0.007300
     69 H373         0.5440     8.1330    -6.5750 hn         1 1NL       0.241133
@<TRIPOS>BOND
     1     1     2 1   
     2     1    40 1   
     3     1    41 1   
     4     1    42 1   
     5     2     3 1   
     6     2     4 1   
     7     2     5 1   
     8     3    43 1   
     9     3    44 1   
    10     3    45 1   
    11     4    46 1   
    12     4    47 1   
    13     4    48 1   
    14     5     6 1   
    15     5     8 1   
    16     5    49 1   
    17     6     7 1   
    18     6    50 1   
    19     6    51 1   
    20     7    52 1   
    21     8     9 1   
    22     8    53 1   
    23     9    10 2   
    24     9    11 1   
    25    11    12 ar  
    26    11    16 ar  
    27    12    13 ar  
    28    12    54 1   
    29    13    14 ar  
    30    13    55 1   
    31    14    15 ar  
    32    14    20 1   
    33    15    16 ar  
    34    15    17 1   
    35    16    56 1   
    36    17    18 1   
    37    17    19 1   
    38    20    21 ar  
    39    20    25 ar  
    40    21    22 ar  
    41    21    57 1   
    42    22    23 ar  
    43    22    58 1   
    44    23    24 ar  
    45    23    38 1   
    46    24    25 ar  
    47    25    26 1   
    48    26    27 2   
    49    26    28 1   
    50    28    29 1   
    51    28    59 1   
    52    29    30 ar  
    53    29    34 ar  
    54    30    31 ar  
    55    30    60 1   
    56    31    32 ar  
    57    31    61 1   
    58    32    33 ar  
    59    32    62 1   
    60    33    34 ar  
    61    33    35 1   
    62    34    63 1   
    63    35    36 2   
    64    35    37 1   
    65    37    64 1   
    66    37    65 1   
    67    37    69 1   
    68    38    39 1   
    69    39    66 1   
    70    39    67 1   
    71    39    68 1   
@<TRIPOS>SUBSTRUCTURE
     1 1NL         1 TEMP              0 ****  ****    0 ROOT
