@<TRIPOS>MOLECULE
1NM
   45    47     1     0     0
SMALL
bcc


@<TRIPOS>ATOM
      1 FAD          0.9880    -0.0950    -0.5810 f          1 1NM      -0.246300
      2 CAJ          2.2010    -0.4450    -0.0220 c3         1 1NM       0.126900
      3 CAK          2.1220    -0.4610     1.5100 c3         1 1NM       0.094400
      4 OAQ          3.4340    -0.6000     2.0590 os         1 1NM      -0.318900
      5 CAZ          4.1290     0.5950     2.1810 ca         1 1NM       0.054100
      6 CAI          3.8490     1.4580     3.2440 ca         1 1NM      -0.072000
      7 CAY          5.1970     0.8760     1.2970 ca         1 1NM       0.128100
      8 OAP          5.3640    -0.0050     0.2510 os         1 1NM      -0.312900
      9 CAA          6.5540     0.1510    -0.5160 c3         1 1NM       0.109700
     10 CAF          5.9890     2.0110     1.5120 ca         1 1NM      -0.195000
     11 CAE          5.7080     2.8610     2.5760 ca         1 1NM      -0.090000
     12 CAW          4.6410     2.5960     3.4470 ca         1 1NM      -0.153500
     13 CBA          4.3700     3.5010     4.5520 cc         1 1NM       0.456900
     14 NAO          3.2110     3.5870     5.2140 nd         1 1NM      -0.615000
     15 SAS          5.5930     4.5830     5.1290 ss         1 1NM      -0.076300
     16 CAG          4.5570     5.1810     6.2840 cc         1 1NM      -0.242400
     17 CAV          3.3130     4.5540     6.2110 cd         1 1NM       0.343600
     18 CAL          2.1840     4.8620     7.1150 c3         1 1NM      -0.055600
     19 SAR          1.3810     6.2790     6.4040 ss         1 1NM      -0.201400
     20 C2           0.1060     6.6680     7.5080 ca         1 1NM       0.793300
     21 N3          -0.0630     5.8830     8.6070 nb         1 1NM      -0.798000
     22 N1          -0.6330     7.7530     7.1440 nb         1 1NM      -0.798000
     23 C6          -1.6570     8.1010     7.9970 ca         1 1NM       0.709200
     24 NAB         -2.3950     9.2500     7.7320 nv         1 1NM      -0.941500
     25 C5          -1.9350     7.3420     9.1700 ca         1 1NM      -0.504600
     26 C4          -1.0890     6.2350     9.4560 ca         1 1NM       0.709200
     27 NAC         -1.2600     5.5260    10.6420 nv         1 1NM      -0.941500
     28 H1           2.4970    -1.4630    -0.3960 h1         1 1NM       0.056700
     29 H2           2.9870     0.2930    -0.3460 h1         1 1NM       0.056700
     30 H3           1.6140     0.4600     1.8930 h1         1 1NM       0.066700
     31 H4           1.5840    -1.3770     1.8720 h1         1 1NM       0.066700
     32 H5           3.0070     1.2260     3.9160 ha         1 1NM       0.168000
     33 H6           6.5310     1.1150    -1.0800 h1         1 1NM       0.048033
     34 H7           7.4590     0.0990     0.1370 h1         1 1NM       0.048033
     35 H8           6.5220    -0.7190    -1.2200 h1         1 1NM       0.048033
     36 H9           6.8290     2.2420     0.8420 ha         1 1NM       0.144000
     37 H10          6.3320     3.7570     2.7300 ha         1 1NM       0.138000
     38 H11          4.8160     5.9620     6.9970 h4         1 1NM       0.189000
     39 H12          1.4730     4.0020     7.2020 h1         1 1NM       0.094700
     40 H13          2.5660     5.0930     8.1400 h1         1 1NM       0.094700
     41 H14         -3.2960     9.2860     8.1430 hn         1 1NM       0.418050
     42 H15         -2.3080     9.6560     6.8290 hn         1 1NM       0.418050
     43 H16         -2.7510     7.6200     9.8440 ha         1 1NM       0.146000
     44 H17         -2.1660     5.5780    11.0430 hn         1 1NM       0.418050
     45 H18         -0.7960     4.6510    10.7270 hn         1 1NM       0.418050
@<TRIPOS>BOND
     1     1     2 1   
     2     2     3 1   
     3     2    28 1   
     4     2    29 1   
     5     3     4 1   
     6     3    30 1   
     7     3    31 1   
     8     4     5 1   
     9     5     6 ar  
    10     5     7 ar  
    11     6    12 ar  
    12     6    32 1   
    13     7     8 1   
    14     7    10 ar  
    15     8     9 1   
    16     9    33 1   
    17     9    34 1   
    18     9    35 1   
    19    10    11 ar  
    20    10    36 1   
    21    11    12 ar  
    22    11    37 1   
    23    12    13 1   
    24    13    14 2   
    25    13    15 1   
    26    14    17 1   
    27    15    16 1   
    28    16    17 2   
    29    16    38 1   
    30    17    18 1   
    31    18    19 1   
    32    18    39 1   
    33    18    40 1   
    34    19    20 1   
    35    20    21 ar  
    36    20    22 ar  
    37    21    26 ar  
    38    22    23 ar  
    39    23    24 1   
    40    23    25 ar  
    41    24    41 1   
    42    24    42 1   
    43    25    26 ar  
    44    25    43 1   
    45    26    27 1   
    46    27    44 1   
    47    27    45 1   
@<TRIPOS>SUBSTRUCTURE
     1 1NM         1 TEMP              0 ****  ****    0 ROOT
