@<TRIPOS>MOLECULE
molecule
   45    47     1     0     0
SMALL
bcc


@<TRIPOS>ATOM
      1 FAD          0.0000     0.0000     0.0000 f          1 1NM      -0.238300
      2 CAJ          1.3980     0.0000     0.0000 c3         1 1NM       0.170900
      3 CAK          1.9090     0.0000     1.4420 c3         1 1NM       0.101400
      4 OAQ          1.5310    -1.2210     2.0810 os         1 1NM      -0.305900
      5 CAZ          1.9090    -1.3820     3.3780 ca         1 1NM       0.115100
      6 CAI          2.6220    -0.3860     4.0190 ca         1 1NM      -0.176000
      7 CAY          1.5740    -2.5480     4.0610 ca         1 1NM       0.135100
      8 OAP          0.8690    -3.5250     3.4310 os         1 1NM      -0.309900
      9 CAA          0.5590    -4.6960     4.1900 c3         1 1NM       0.126700
     10 CAF          1.9590    -2.7160     5.3830 ca         1 1NM      -0.199000
     11 CAE          2.6750    -1.7280     6.0270 ca         1 1NM      -0.075000
     12 CAW          3.0090    -0.5550     5.3490 ca         1 1NM      -0.133500
     13 CBA          3.7710     0.5070     6.0390 cc         1 1NM       0.548900
     14 NAO          4.1890     0.4580     7.2730 nc         1 1NM      -0.674000
     15 SAS          4.2690     2.0380     5.3240 ss         1 1NM      -0.248300
     16 CAG          5.0290     2.4970     6.8460 cd         1 1NM      -0.164400
     17 CAV          4.8580     1.4980     7.7170 cc         1 1NM       0.378600
     18 CAL          5.3930     1.5620     9.1240 c3         1 1NM      -0.029600
     19 SAR          7.0660     0.8710     9.1660 ss         1 1NM      -0.238400
     20 C2           7.4350     1.0670    10.8780 ca         1 1NM       0.837300
     21 N3           8.6130     0.6680    11.3350 nb         1 1NM      -0.813000
     22 N1           6.5290     1.6150    11.6750 nb         1 1NM      -0.813000
     23 C6           6.7750     1.7840    12.9720 ca         1 1NM       0.750700
     24 NAB          5.8240     2.3620    13.7970 nv         1 1NM      -1.043000
     25 C5           8.0020     1.3770    13.4880 ca         1 1NM      -0.469600
     26 C4           8.9270     0.8010    12.6210 ca         1 1NM       0.750700
     27 NAC         10.1610     0.3810    13.0900 nv         1 1NM      -1.043000
     28 H1           1.7590     0.8840    -0.5110 h1         1 1NM       0.055700
     29 H2           1.7590    -0.8840    -0.5110 h1         1 1NM       0.055700
     30 H3           1.4770     0.8370     1.9780 h1         1 1NM       0.045700
     31 H4           2.9880     0.0890     1.4430 h1         1 1NM       0.045700
     32 H5           2.8790     0.5240     3.4900 ha         1 1NM       0.143000
     33 H6           1.4770    -5.1670     4.5190 h1         1 1NM       0.042700
     34 H7          -0.0340    -4.4200     5.0540 h1         1 1NM       0.042700
     35 H8          -0.0020    -5.3880     3.5740 h1         1 1NM       0.042700
     36 H9           1.6980    -3.6260     5.9100 ha         1 1NM       0.146000
     37 H10          2.9750    -1.8610     7.0590 ha         1 1NM       0.159000
     38 H11          5.5520     3.4250     7.0400 h4         1 1NM       0.186000
     39 H12          5.4200     2.5930     9.4530 h1         1 1NM       0.092200
     40 H13          4.7500     0.9900     9.7810 h1         1 1NM       0.092200
     41 H14          5.8070     3.3550    13.9230 hn         1 1NM       0.441550
     42 H15          5.1430     1.7890    14.2550 hn         1 1NM       0.441550
     43 H16          8.2300     1.5000    14.5400 ha         1 1NM       0.145000
     44 H17         10.3910     0.4850    14.0580 hn         1 1NM       0.441550
     45 H18         10.8220    -0.0300    12.4610 hn         1 1NM       0.441550
@<TRIPOS>BOND
     1    24    23 1   
     2    23    25 ar  
     3    23    22 ar  
     4    25    26 ar  
     5    22    20 ar  
     6    26    27 1   
     7    26    21 ar  
     8    20    21 ar  
     9    20    19 1   
    10    19    18 1   
    11    18    17 1   
    12     1     2 1   
    13    17    14 1   
    14    17    16 2   
    15    14    13 2   
    16    16    15 1   
    17     2     3 1   
    18    13    15 1   
    19    13    12 1   
    20     3     4 1   
    21    12     6 ar  
    22    12    11 ar  
    23     6     5 ar  
    24     5     4 1   
    25     5     7 ar  
    26    11    10 ar  
    27     7    10 ar  
    28     7     8 1   
    29     8     9 1   
    30     2    28 1   
    31     2    29 1   
    32     3    30 1   
    33     3    31 1   
    34     6    32 1   
    35     9    33 1   
    36     9    34 1   
    37     9    35 1   
    38    10    36 1   
    39    11    37 1   
    40    16    38 1   
    41    18    39 1   
    42    18    40 1   
    43    24    41 1   
    44    24    42 1   
    45    25    43 1   
    46    27    44 1   
    47    27    45 1   
@<TRIPOS>SUBSTRUCTURE
     1 1NM         1 TEMP              0 ****  ****    0 ROOT
