@<TRIPOS>MOLECULE
molecule
   51    53     1     0     0
SMALL
bcc


@<TRIPOS>ATOM
      1 FAE          0.0000     0.0000     0.0000 f          1 1NN      -0.240300
      2 CAJ          1.3990     0.0000     0.0000 c3         1 1NN       0.169900
      3 CAL          1.9090     0.0000     1.4420 c3         1 1NN       0.100400
      4 OAR          1.5310    -1.2200     2.0810 os         1 1NN      -0.307900
      5 CAZ          1.9090    -1.3820     3.3780 ca         1 1NN       0.111100
      6 CAI          2.6270    -0.3880     4.0180 ca         1 1NN      -0.147000
      7 CAY          1.5700    -2.5460     4.0630 ca         1 1NN       0.132100
      8 OAQ          0.8610    -3.5210     3.4340 os         1 1NN      -0.308900
      9 CAB          0.5460    -4.6880     4.1950 c3         1 1NN       0.126700
     10 CAG          1.9530    -2.7140     5.3850 ca         1 1NN      -0.193000
     11 CAF          2.6730    -1.7280     6.0270 ca         1 1NN      -0.110000
     12 CAW          3.0130    -0.5560     5.3480 ca         1 1NN      -0.128500
     13 CBC          3.7850     0.5000     6.0350 cc         1 1NN       0.540900
     14 NAP          4.1570     1.6300     5.5050 nd         1 1NN      -0.673000
     15 SAT          4.3420     0.4380     7.7050 ss         1 1NN      -0.236300
     16 CBB          5.0730     2.0310     7.5150 cc         1 1NN      -0.110700
     17 CAK          5.8270     2.7880     8.5770 c3         1 1NN      -0.007100
     18 CAA          4.8530     3.6610     9.3700 c3         1 1NN      -0.092100
     19 CBA          4.8400     2.4520     6.2690 cd         1 1NN       0.370600
     20 CAM          5.3310     3.7870     5.7700 c3         1 1NN      -0.029600
     21 SAS          6.9800     3.5920     5.0510 ss         1 1NN      -0.240400
     22 C2           7.3000     5.2550     4.5640 ca         1 1NN       0.840300
     23 N3           8.4510     5.5450     3.9760 nb         1 1NN      -0.818000
     24 N1           6.3810     6.1820     4.7910 nb         1 1NN      -0.818000
     25 C6           6.5860     7.4470     4.4320 ca         1 1NN       0.752200
     26 NAC          5.6170     8.4100     4.6690 nv         1 1NN      -1.037000
     27 C5           7.7840     7.7900     3.8110 ca         1 1NN      -0.477600
     28 C4           8.7270     6.7900     3.5940 ca         1 1NN       0.752200
     29 NAD          9.9330     7.0850     2.9790 nv         1 1NN      -1.037000
     30 H1           1.7610     0.8850    -0.5110 h1         1 1NN       0.055200
     31 H2           1.7610    -0.8850    -0.5110 h1         1 1NN       0.055200
     32 H3           1.4760     0.8370     1.9780 h1         1 1NN       0.049200
     33 H4           2.9880     0.0890     1.4440 h1         1 1NN       0.049200
     34 H5           2.8880     0.5200     3.4870 ha         1 1NN       0.164000
     35 H6          -0.0160    -5.3800     3.5790 h1         1 1NN       0.042033
     36 H7           1.4620    -5.1620     4.5260 h1         1 1NN       0.042033
     37 H8          -0.0480    -4.4080     5.0570 h1         1 1NN       0.042033
     38 H9           1.6890    -3.6210     5.9130 ha         1 1NN       0.144000
     39 H10          2.9710    -1.8610     7.0600 ha         1 1NN       0.136000
     40 H11          6.5760     3.4160     8.1100 hc         1 1NN       0.060700
     41 H12          6.3100     2.0870     9.2460 hc         1 1NN       0.060700
     42 H13          4.0300     3.9570     8.7310 hc         1 1NN       0.040033
     43 H14          4.4710     3.1000    10.2150 hc         1 1NN       0.040033
     44 H15          5.3690     4.5450     9.7280 hc         1 1NN       0.040033
     45 H16          5.3770     4.4860     6.5970 h1         1 1NN       0.091200
     46 H17          4.6500     4.1640     5.0160 h1         1 1NN       0.091200
     47 H18          5.4180     8.7010     5.6060 hn         1 1NN       0.441800
     48 H19          5.0910     8.7900     3.9060 hn         1 1NN       0.441800
     49 H20          7.9790     8.8120     3.5100 ha         1 1NN       0.144000
     50 H21         10.6030     6.3590     2.8180 hn         1 1NN       0.441800
     51 H22         10.1350     8.0240     2.6970 hn         1 1NN       0.441800
@<TRIPOS>BOND
     1    17    18 1   
     2    17    16 1   
     3    15    16 1   
     4    15    13 1   
     5    16    19 2   
     6    26    25 1   
     7    11    10 ar  
     8    11    12 ar  
     9    25    27 ar  
    10    25    24 ar  
    11    27    28 ar  
    12    10     7 ar  
    13    24    22 ar  
    14    13    12 1   
    15    13    14 2   
    16    28    29 1   
    17    28    23 ar  
    18    19    14 1   
    19    19    20 1   
    20    22    23 ar  
    21    22    21 1   
    22    12     6 ar  
    23     9     8 1   
    24    21    20 1   
    25     7     8 1   
    26     7     5 ar  
    27     6     5 ar  
    28     5     4 1   
    29     4     3 1   
    30     3     2 1   
    31     2     1 1   
    32     2    30 1   
    33     2    31 1   
    34     3    32 1   
    35     3    33 1   
    36     6    34 1   
    37     9    35 1   
    38     9    36 1   
    39     9    37 1   
    40    10    38 1   
    41    11    39 1   
    42    17    40 1   
    43    17    41 1   
    44    18    42 1   
    45    18    43 1   
    46    18    44 1   
    47    20    45 1   
    48    20    46 1   
    49    26    47 1   
    50    26    48 1   
    51    27    49 1   
    52    29    50 1   
    53    29    51 1   
@<TRIPOS>SUBSTRUCTURE
     1 1NN         1 TEMP              0 ****  ****    0 ROOT
