@<TRIPOS>MOLECULE
1NN
   51    53     1     0     0
SMALL
bcc


@<TRIPOS>ATOM
      1 FAE         -0.3120     0.4620     0.1060 f          1 1NN      -0.241300
      2 CAJ          0.9460    -0.0910     0.2370 c3         1 1NN       0.155900
      3 CAL          1.4910     0.1440     1.6540 c3         1 1NN       0.088400
      4 OAR          2.7650    -0.5080     1.6680 os         1 1NN      -0.309900
      5 CAZ          3.5670    -0.2110     2.7530 ca         1 1NN       0.095100
      6 CAI          3.1080     0.3460     3.9450 ca         1 1NN      -0.129000
      7 CAY          4.9390    -0.5530     2.6060 ca         1 1NN       0.117100
      8 OAQ          5.2890    -1.0910     1.3860 os         1 1NN      -0.301900
      9 CAB          6.6450    -1.5010     1.2520 c3         1 1NN       0.109700
     10 CAG          5.8200    -0.3320     3.6660 ca         1 1NN      -0.183000
     11 CAF          5.3550     0.2300     4.8540 ca         1 1NN      -0.115000
     12 CAW          4.0060     0.5700     5.0020 ca         1 1NN      -0.132500
     13 CBC          3.5420     1.1470     6.2540 cc         1 1NN       0.454900
     14 NAP          2.4140     1.8480     6.4100 nd         1 1NN      -0.615000
     15 SAT          4.4570     0.9510     7.7050 ss         1 1NN      -0.088300
     16 CBB          3.3260     1.8310     8.5780 cc         1 1NN      -0.166700
     17 CAK          3.4380     2.1010    10.0210 c3         1 1NN      -0.014100
     18 CAA          4.0860     3.4360    10.3120 c3         1 1NN      -0.091100
     19 CBA          2.2830     2.2400     7.7390 cd         1 1NN       0.336600
     20 CAM          1.1230     3.0440     8.1850 c3         1 1NN      -0.054600
     21 SAS         -0.0970     1.8690     8.7250 ss         1 1NN      -0.201400
     22 C2          -1.4050     2.8310     9.3250 ca         1 1NN       0.792300
     23 N3          -1.3040     4.1860     9.2470 nb         1 1NN      -0.797000
     24 N1          -2.4420     2.1060     9.8320 nb         1 1NN      -0.797000
     25 C6          -3.5150     2.8310    10.2970 ca         1 1NN       0.705200
     26 NAC         -4.6500     2.1530    10.7340 nv         1 1NN      -0.938000
     27 C5          -3.5110     4.2550    10.2820 ca         1 1NN      -0.500600
     28 C4          -2.3650     4.9070     9.7480 ca         1 1NN       0.705200
     29 NAD         -2.2820     6.2980     9.7900 nv         1 1NN      -0.938000
     30 H1           1.6360     0.3800    -0.5150 h1         1 1NN       0.059200
     31 H2           0.8870    -1.1950     0.0350 h1         1 1NN       0.059200
     32 H3           1.6010     1.2390     1.8620 h1         1 1NN       0.056200
     33 H4           0.8200    -0.3240     2.4200 h1         1 1NN       0.056200
     34 H5           2.0460     0.6110     4.0650 ha         1 1NN       0.166000
     35 H6           6.9010    -2.2830     2.0080 h1         1 1NN       0.046033
     36 H7           6.6840    -1.9250     0.2160 h1         1 1NN       0.046033
     37 H8           7.3330    -0.6250     1.3450 h1         1 1NN       0.046033
     38 H9           6.8840    -0.5910     3.5720 ha         1 1NN       0.143000
     39 H10          6.0630     0.4090     5.6780 ha         1 1NN       0.137000
     40 H11          2.4100     2.0780    10.4790 hc         1 1NN       0.060700
     41 H12          4.0350     1.2850    10.5140 hc         1 1NN       0.060700
     42 H13          4.1290     3.6010    11.4160 hc         1 1NN       0.039367
     43 H14          3.5010     4.2680     9.8510 hc         1 1NN       0.039367
     44 H15          5.1260     3.4710     9.9070 hc         1 1NN       0.039367
     45 H16          0.7200     3.6830     7.3600 h1         1 1NN       0.094200
     46 H17          1.4270     3.7200     9.0240 h1         1 1NN       0.094200
     47 H18         -5.2270     2.6520    11.3680 hn         1 1NN       0.416050
     48 H19         -4.5670     1.1760    10.8970 hn         1 1NN       0.416050
     49 H20         -4.3610     4.8280    10.6660 ha         1 1NN       0.146000
     50 H21         -1.5750     6.7270     9.2390 hn         1 1NN       0.416050
     51 H22         -3.1560     6.7690     9.8040 hn         1 1NN       0.416050
@<TRIPOS>BOND
     1     1     2 1   
     2     2     3 1   
     3     2    30 1   
     4     2    31 1   
     5     3     4 1   
     6     3    32 1   
     7     3    33 1   
     8     4     5 1   
     9     5     6 ar  
    10     5     7 ar  
    11     6    12 ar  
    12     6    34 1   
    13     7     8 1   
    14     7    10 ar  
    15     8     9 1   
    16     9    35 1   
    17     9    36 1   
    18     9    37 1   
    19    10    11 ar  
    20    10    38 1   
    21    11    12 ar  
    22    11    39 1   
    23    12    13 1   
    24    13    14 2   
    25    13    15 1   
    26    14    19 1   
    27    15    16 1   
    28    16    17 1   
    29    16    19 2   
    30    17    18 1   
    31    17    40 1   
    32    17    41 1   
    33    18    42 1   
    34    18    43 1   
    35    18    44 1   
    36    19    20 1   
    37    20    21 1   
    38    20    45 1   
    39    20    46 1   
    40    21    22 1   
    41    22    23 ar  
    42    22    24 ar  
    43    23    28 ar  
    44    24    25 ar  
    45    25    26 1   
    46    25    27 ar  
    47    26    47 1   
    48    26    48 1   
    49    27    28 ar  
    50    27    49 1   
    51    28    29 1   
    52    29    50 1   
    53    29    51 1   
@<TRIPOS>SUBSTRUCTURE
     1 1NN         1 TEMP              0 ****  ****    0 ROOT
