@<TRIPOS>MOLECULE
1NN
   51    53     1     0     0
SMALL
bcc


@<TRIPOS>ATOM
      1 FAE          0.0000     0.0000     0.0000 f          1 1NN      -0.227300
      2 CAJ          1.3990     0.0000     0.0000 c3         1 1NN       0.212900
      3 CAL          1.9090     0.0000     1.4420 c3         1 1NN       0.164400
      4 OAR          1.5310    -1.2200     2.0810 os         1 1NN      -0.284900
      5 CAZ          1.9090    -1.3820     3.3780 ca         1 1NN       0.113100
      6 CAI          2.6270    -0.3880     4.0180 ca         1 1NN      -0.140000
      7 CAY          1.5700    -2.5460     4.0630 ca         1 1NN       0.134100
      8 OAQ          0.8610    -3.5210     3.4340 os         1 1NN      -0.289900
      9 CAB          0.5460    -4.6880     4.1950 c3         1 1NN       0.241700
     10 CAG          1.9530    -2.7140     5.3850 ca         1 1NN      -0.181000
     11 CAF          2.6730    -1.7280     6.0270 ca         1 1NN      -0.081000
     12 CAW          3.0130    -0.5560     5.3480 ca         1 1NN      -0.129500
     13 CBC          3.7850     0.5000     6.0350 cc         1 1NN       0.533900
     14 NAP          4.1570     1.6300     5.5050 nd         1 1NN      -0.550000
     15 SAT          4.3420     0.4380     7.7050 ss         1 1NN      -0.328300
     16 CBB          5.0730     2.0310     7.5150 cc         1 1NN      -0.073700
     17 CAK          5.8270     2.7880     8.5770 c3         1 1NN       0.064900
     18 CAA          4.8530     3.6610     9.3700 c3         1 1NN       0.000900
     19 CBA          4.8400     2.4520     6.2690 cd         1 1NN       0.330600
     20 CAM          5.3310     3.7870     5.7700 c3         1 1NN       0.059400
     21 SAS          6.9800     3.5920     5.0510 ss         1 1NN      -0.383400
     22 C2           7.3000     5.2550     4.5640 ca         1 1NN       0.803300
     23 N3           8.4510     5.5450     3.9760 nb         1 1NN      -0.705500
     24 N1           6.3810     6.1820     4.7910 nb         1 1NN      -0.705500
     25 C6           6.5860     7.4470     4.4320 ca         1 1NN       0.570700
     26 NAC          5.6170     8.4100     4.6690 nv         1 1NN      -0.571000
     27 C5           7.7840     7.7900     3.8110 ca         1 1NN      -0.459600
     28 C4           8.7270     6.7900     3.5940 ca         1 1NN       0.570700
     29 NAD          9.9330     7.0850     2.9790 nv         1 1NN      -0.571000
     30 H1           1.7610     0.8850    -0.5110 h1         1 1NN       0.017700
     31 H2           1.7610    -0.8850    -0.5110 h1         1 1NN       0.017700
     32 H3           1.4760     0.8370     1.9780 h1         1 1NN       0.016200
     33 H4           2.9880     0.0890     1.4440 h1         1 1NN       0.016200
     34 H5           2.8880     0.5200     3.4870 ha         1 1NN       0.141000
     35 H6          -0.0160    -5.3800     3.5790 h1         1 1NN      -0.002300
     36 H7           1.4620    -5.1620     4.5260 h1         1 1NN      -0.002300
     37 H8          -0.0480    -4.4080     5.0570 h1         1 1NN      -0.002300
     38 H9           1.6890    -3.6210     5.9130 ha         1 1NN       0.125000
     39 H10          2.9710    -1.8610     7.0600 ha         1 1NN       0.114000
     40 H11          6.5760     3.4160     8.1100 hc         1 1NN       0.031200
     41 H12          6.3100     2.0870     9.2460 hc         1 1NN       0.031200
     42 H13          4.0300     3.9570     8.7310 hc         1 1NN       0.007367
     43 H14          4.4710     3.1000    10.2150 hc         1 1NN       0.007367
     44 H15          5.3690     4.5450     9.7280 hc         1 1NN       0.007367
     45 H16          5.3770     4.4860     6.5970 h1         1 1NN       0.060200
     46 H17          4.6500     4.1640     5.0160 h1         1 1NN       0.060200
     47 H18          5.4180     8.7010     5.6060 hn         1 1NN       0.275800
     48 H19          5.0910     8.7900     3.9060 hn         1 1NN       0.275800
     49 H20          7.9790     8.8120     3.5100 ha         1 1NN       0.131000
     50 H21         10.6030     6.3590     2.8180 hn         1 1NN       0.275800
     51 H22         10.1350     8.0240     2.6970 hn         1 1NN       0.275800
@<TRIPOS>BOND
     1     1     2 1   
     2     2     3 1   
     3     2    30 1   
     4     2    31 1   
     5     3     4 1   
     6     3    32 1   
     7     3    33 1   
     8     4     5 1   
     9     5     6 ar  
    10     5     7 ar  
    11     6    12 ar  
    12     6    34 1   
    13     7     8 1   
    14     7    10 ar  
    15     8     9 1   
    16     9    35 1   
    17     9    36 1   
    18     9    37 1   
    19    10    11 ar  
    20    10    38 1   
    21    11    12 ar  
    22    11    39 1   
    23    12    13 1   
    24    13    14 2   
    25    13    15 1   
    26    14    19 1   
    27    15    16 1   
    28    16    17 1   
    29    16    19 2   
    30    17    18 1   
    31    17    40 1   
    32    17    41 1   
    33    18    42 1   
    34    18    43 1   
    35    18    44 1   
    36    19    20 1   
    37    20    21 1   
    38    20    45 1   
    39    20    46 1   
    40    21    22 1   
    41    22    23 ar  
    42    22    24 ar  
    43    23    28 ar  
    44    24    25 ar  
    45    25    26 1   
    46    25    27 ar  
    47    26    47 1   
    48    26    48 1   
    49    27    28 ar  
    50    27    49 1   
    51    28    29 1   
    52    29    50 1   
    53    29    51 1   
@<TRIPOS>SUBSTRUCTURE
     1 1NN         1 TEMP              0 ****  ****    0 ROOT
