@<TRIPOS>MOLECULE
molecule
   48    50     1     0     0
SMALL
bcc


@<TRIPOS>ATOM
      1 FAN          0.0000     0.0000     0.0000 f          1 1NO      -0.238300
      2 CAM          1.3990     0.0000     0.0000 c3         1 1NO       0.169900
      3 CAL          1.9090     0.0000     1.4440 c3         1 1NO       0.101400
      4 OAK          1.5310    -1.2210     2.0820 os         1 1NO      -0.305900
      5 CAV          1.9090    -1.3830     3.3780 ca         1 1NO       0.115100
      6 CAU          2.6260    -0.3890     4.0180 ca         1 1NO      -0.177000
      7 CAW          1.5690    -2.5480     4.0630 ca         1 1NO       0.133100
      8 OAX          0.8600    -3.5220     3.4330 os         1 1NO      -0.308900
      9 CAY          0.5460    -4.6890     4.1950 c3         1 1NO       0.125700
     10 CBB          1.9530    -2.7150     5.3850 ca         1 1NO      -0.198000
     11 CBA          2.6730    -1.7290     6.0280 ca         1 1NO      -0.077000
     12 CAT          3.0130    -0.5580     5.3480 ca         1 1NO      -0.130500
     13 CAS          3.7850     0.4990     6.0360 cc         1 1NO       0.543900
     14 NAR          4.2010     0.4500     7.2690 nd         1 1NO      -0.668000
     15 SAZ          4.2940     2.0240     5.3160 ss         1 1NO      -0.249300
     16 CAP          5.0590     2.4800     6.8370 cc         1 1NO      -0.111700
     17 CAO          5.7980     3.7660     7.1040 c3         1 1NO      -0.014800
     18 CAQ          4.8750     1.4870     7.7120 cd         1 1NO       0.369600
     19 CAJ          5.4060     1.5530     9.1210 c3         1 1NO      -0.029600
     20 SAI          4.1610     2.3030    10.2000 ss         1 1NO      -0.235400
     21 C2           5.0200     2.2570    11.7380 ca         1 1NO       0.864300
     22 N1           4.4270     2.7310    12.8230 nb         1 1NO      -0.849000
     23 N3           6.2410     1.7430    11.7800 nb         1 1NO      -0.849000
     24 C4           6.9180     1.6850    12.9240 ca         1 1NO       0.769200
     25 NAF          8.1930     1.1420    12.9590 nv         1 1NO      -1.002500
     26 C5           6.3270     2.1750    14.0850 ca         1 1NO      -0.534600
     27 C6           5.0450     2.7130    14.0010 ca         1 1NO       0.769200
     28 NAA          4.4180     3.2120    15.1320 nv         1 1NO      -1.002500
     29 H1           1.7600     0.8850    -0.5110 h1         1 1NO       0.055200
     30 H2           1.7600    -0.8850    -0.5110 h1         1 1NO       0.055200
     31 H3           2.9880     0.0890     1.4450 h1         1 1NO       0.045700
     32 H4           1.4760     0.8360     1.9790 h1         1 1NO       0.045700
     33 H5           2.8880     0.5180     3.4870 ha         1 1NO       0.142000
     34 H6           1.4620    -5.1640     4.5240 h1         1 1NO       0.042367
     35 H7          -0.0180    -5.3800     3.5800 h1         1 1NO       0.042367
     36 H8          -0.0460    -4.4090     5.0580 h1         1 1NO       0.042367
     37 H9           1.6880    -3.6230     5.9130 ha         1 1NO       0.146000
     38 H10          2.9720    -1.8630     7.0610 ha         1 1NO       0.159000
     39 H11          6.8600     3.5660     7.1660 hc         1 1NO       0.054367
     40 H12          5.6090     4.4650     6.2980 hc         1 1NO       0.054367
     41 H13          5.4550     4.1930     8.0390 hc         1 1NO       0.054367
     42 H14          5.6300     0.5520     9.4700 h1         1 1NO       0.089700
     43 H15          6.3080     2.1520     9.1400 h1         1 1NO       0.089700
     44 H16          8.6640     1.0300    13.8350 hn         1 1NO       0.441550
     45 H17          8.6370     0.8530    12.1110 hn         1 1NO       0.441550
     46 H18          6.8550     2.1440    15.0300 ha         1 1NO       0.135000
     47 H19          4.8920     3.2000    16.0140 hn         1 1NO       0.441550
     48 H20          3.4990     3.6010    15.0640 hn         1 1NO       0.441550
@<TRIPOS>BOND
     1    17    16 1
     2    15    16 1
     3    15    13 1
     4    16    18 2
     5    25    24 1
     6    11    10 ar
     7    11    12 ar
     8    24    26 ar
     9    24    23 ar
    10    10     7 ar
    11    26    27 ar
    12    23    21 ar
    13    13    12 1
    14    13    14 2
    15    27    28 1
    16    27    22 ar
    17    12     6 ar
    18    21    22 ar
    19    21    20 1
    20    18    14 1
    21    18    19 1
    22    20    19 1
    23     9     8 1
    24     7     8 1
    25     7     5 ar
    26     6     5 ar
    27     5     4 1
    28     4     3 1
    29     3     2 1
    30     2     1 1
    31     2    29 1
    32     2    30 1
    33     3    31 1
    34     3    32 1
    35     6    33 1
    36     9    34 1
    37     9    35 1
    38     9    36 1
    39    10    37 1
    40    11    38 1
    41    17    39 1
    42    17    40 1
    43    17    41 1
    44    19    42 1
    45    19    43 1
    46    25    44 1
    47    25    45 1
    48    26    46 1
    49    28    47 1
    50    28    48 1
@<TRIPOS>SUBSTRUCTURE
     1 1NO         1 TEMP              0 ****  ****    0 ROOT
