@<TRIPOS>MOLECULE
1NO
   48    50     1     0     0
SMALL
bcc


@<TRIPOS>ATOM
      1 FAN         -0.1030     0.7590     0.1370 f          1 1NO      -0.240300
      2 CAM          0.9020    -0.1600     0.3610 c3         1 1NO       0.157900
      3 CAL          1.4620    -0.0610     1.7870 c3         1 1NO       0.087400
      4 OAK          2.6050     0.7970     1.6880 os         1 1NO      -0.308900
      5 CAV          3.1840     1.1590     2.8880 ca         1 1NO       0.098100
      6 CAU          2.8790     0.5880     4.1210 ca         1 1NO      -0.135000
      7 CAW          4.1760     2.1740     2.7980 ca         1 1NO       0.117100
      8 OAX          4.4070     2.6660     1.5320 os         1 1NO      -0.299900
      9 CAY          5.3800     3.7010     1.4320 c3         1 1NO       0.109700
     10 CBB          4.8380     2.5940     3.9530 ca         1 1NO      -0.182000
     11 CBA          4.5230     2.0210     5.1840 ca         1 1NO      -0.117000
     12 CAT          3.5510     1.0200     5.2770 ca         1 1NO      -0.132500
     13 CAS          3.2470     0.4270     6.5710 cc         1 1NO       0.456900
     14 NAR          2.1400    -0.2630     6.8640 nd         1 1NO      -0.615000
     15 SAZ          4.3560     0.5730     7.8870 ss         1 1NO      -0.089300
     16 CAP          3.3380    -0.3060     8.8880 cc         1 1NO      -0.167700
     17 CAO          3.6320    -0.6150    10.2880 c3         1 1NO      -0.027800
     18 CAQ          2.1870    -0.6890     8.1880 cd         1 1NO       0.332600
     19 CAJ          1.0780    -1.4630     8.7860 c3         1 1NO      -0.053600
     20 SAI          1.3950    -3.1620     8.3680 ss         1 1NO      -0.198400
     21 C2           0.1620    -4.0570     9.1890 ca         1 1NO       0.791300
     22 N1          -0.7750    -3.3720     9.9020 nb         1 1NO      -0.797000
     23 N3           0.2560    -5.4080     9.0310 nb         1 1NO      -0.797000
     24 C4          -0.7210    -6.1580     9.6460 ca         1 1NO       0.705200
     25 NAF         -0.7450    -7.5350     9.4410 nv         1 1NO      -0.937500
     26 C5          -1.7390    -5.5480    10.4330 ca         1 1NO      -0.500600
     27 C6          -1.7260    -4.1300    10.5450 ca         1 1NO       0.705200
     28 NAA         -2.6530    -3.4970    11.3730 nv         1 1NO      -0.937500
     29 H1           0.4820    -1.1930     0.2130 h1         1 1NO       0.059700
     30 H2           1.7290     0.0180    -0.3820 h1         1 1NO       0.059700
     31 H3           1.7900    -1.0720     2.1430 h1         1 1NO       0.058200
     32 H4           0.7060     0.3750     2.4890 h1         1 1NO       0.058200
     33 H5           2.1140    -0.2000     4.1990 ha         1 1NO       0.164000
     34 H6           5.0740     4.5910     2.0330 h1         1 1NO       0.045700
     35 H7           6.3830     3.3320     1.7590 h1         1 1NO       0.045700
     36 H8           5.3850     3.9430     0.3390 h1         1 1NO       0.045700
     37 H9           5.6050     3.3790     3.9040 ha         1 1NO       0.143000
     38 H10          5.0470     2.3670     6.0890 ha         1 1NO       0.136000
     39 H11          2.8620    -0.1540    10.9600 hc         1 1NO       0.055033
     40 H12          3.6170    -1.7230    10.4550 hc         1 1NO       0.055033
     41 H13          4.6370    -0.2270    10.5880 hc         1 1NO       0.055033
     42 H14          1.0650    -1.3170     9.8950 h1         1 1NO       0.093200
     43 H15          0.0850    -1.1380     8.3850 h1         1 1NO       0.093200
     44 H16          0.0640    -7.9530     9.0410 hn         1 1NO       0.416050
     45 H17         -1.2010    -8.0620    10.1470 hn         1 1NO       0.416050
     46 H18         -2.5050    -6.1490    10.9320 ha         1 1NO       0.146000
     47 H19         -3.5010    -3.9960    11.5120 hn         1 1NO       0.416050
     48 H20         -2.7480    -2.5120    11.2780 hn         1 1NO       0.416050
@<TRIPOS>BOND
     1     1     2 1   
     2     2     3 1   
     3     2    29 1   
     4     2    30 1   
     5     3     4 1   
     6     3    31 1   
     7     3    32 1   
     8     4     5 1   
     9     5     6 ar  
    10     5     7 ar  
    11     6    12 ar  
    12     6    33 1   
    13     7     8 1   
    14     7    10 ar  
    15     8     9 1   
    16     9    34 1   
    17     9    35 1   
    18     9    36 1   
    19    10    11 ar  
    20    10    37 1   
    21    11    12 ar  
    22    11    38 1   
    23    12    13 1   
    24    13    14 2   
    25    13    15 1   
    26    14    18 1   
    27    15    16 1   
    28    16    17 1   
    29    16    18 2   
    30    17    39 1   
    31    17    40 1   
    32    17    41 1   
    33    18    19 1   
    34    19    20 1   
    35    19    42 1   
    36    19    43 1   
    37    20    21 1   
    38    21    22 ar  
    39    21    23 ar  
    40    22    27 ar  
    41    23    24 ar  
    42    24    25 1   
    43    24    26 ar  
    44    25    44 1   
    45    25    45 1   
    46    26    27 ar  
    47    26    46 1   
    48    27    28 1   
    49    28    47 1   
    50    28    48 1   
@<TRIPOS>SUBSTRUCTURE
     1 1NO         1 TEMP              0 ****  ****    0 ROOT
