@<TRIPOS>MOLECULE
1NP
   19    20     1     0     0
SMALL
bcc


@<TRIPOS>ATOM
      1 O1         -0.0150    0.1540    0.1040 oh        1 1NP     -0.498100
      2 C1          1.3570    0.1110    0.0090 ca        1 1NP      0.143100
      3 C8A         2.0670    0.0540    1.2510 ca        1 1NP     -0.055000
      4 C8          1.4030    0.0420    2.5060 ca        1 1NP     -0.091000
      5 C7          2.1260   -0.0130    3.6730 ca        1 1NP     -0.142000
      6 C2          2.0250    0.1220   -1.2010 ca        1 1NP     -0.230000
      7 C3          3.4370    0.0760   -1.2190 ca        1 1NP     -0.089000
      8 C4          4.1520    0.0210   -0.0480 ca        1 1NP     -0.153000
      9 C4A         3.4840    0.0090    1.2070 ca        1 1NP     -0.009000
     10 C5          4.2040   -0.0480    2.4320 ca        1 1NP     -0.130000
     11 C6          3.5400   -0.0590    3.6350 ca        1 1NP     -0.115000
     12 HO1        -0.3740    0.1900   -0.7950 ho        1 1NP      0.421000
     13 H8          0.3020    0.0780    2.5150 ha        1 1NP      0.149000
     14 H7          1.6160   -0.0230    4.6470 ha        1 1NP      0.134000
     15 H2          1.4720    0.1660   -2.1490 ha        1 1NP      0.134000
     16 H3          3.9520    0.0850   -2.1910 ha        1 1NP      0.133000
     17 H4          5.2510   -0.0150   -0.0600 ha        1 1NP      0.134000
     18 H5          5.3030   -0.0830    2.3940 ha        1 1NP      0.133000
     19 H6          4.0980   -0.1030    4.5810 ha        1 1NP      0.132000
@<TRIPOS>BOND
     1    1    2 1   
     2    1   12 1   
     3    2    3 ar  
     4    2    6 ar  
     5    3    4 ar  
     6    3    9 ar  
     7    4    5 ar  
     8    4   13 1   
     9    5   11 ar  
    10    5   14 1   
    11    6    7 ar  
    12    6   15 1   
    13    7    8 ar  
    14    7   16 1   
    15    8    9 ar  
    16    8   17 1   
    17    9   10 ar  
    18   10   11 ar  
    19   10   18 1   
    20   11   19 1   
@<TRIPOS>SUBSTRUCTURE
     1 1NP         1 TEMP              0 ****  ****    0 ROOT
