@<TRIPOS>MOLECULE
1NP
   19    20     1     0     0
SMALL
bcc


@<TRIPOS>ATOM
      1 O1          -0.1230    -0.1480     0.0530 oh         1 1NP      -0.498100
      2 C1           1.2520    -0.1100    -0.0050 ca         1 1NP       0.143100
      3 C8A          1.9290    -0.0520     1.2560 ca         1 1NP      -0.055000
      4 C8           1.2310    -0.0350     2.4920 ca         1 1NP      -0.091000
      5 C7           1.9230     0.0220     3.6780 ca         1 1NP      -0.142000
      6 C2           1.9520    -0.1260    -1.1970 ca         1 1NP      -0.230000
      7 C3           3.3630    -0.0840    -1.1770 ca         1 1NP      -0.089000
      8 C4           4.0470    -0.0280     0.0120 ca         1 1NP      -0.153000
      9 C4A          3.3460    -0.0110     1.2500 ca         1 1NP      -0.009000
     10 C5           4.0330     0.0470     2.4930 ca         1 1NP      -0.130000
     11 C6           3.3370     0.0630     3.6770 ca         1 1NP      -0.115000
     12 HO1         -0.4580    -0.1850    -0.8550 ho         1 1NP       0.421000
     13 H8           0.1300    -0.0670     2.4710 ha         1 1NP       0.149000
     14 H7           1.3870     0.0350     4.6380 ha         1 1NP       0.134000
     15 H2           1.4240    -0.1700    -2.1590 ha         1 1NP       0.134000
     16 H3           3.9050    -0.0980    -2.1350 ha         1 1NP       0.133000
     17 H4           5.1460     0.0040     0.0300 ha         1 1NP       0.134000
     18 H5           5.1330     0.0790     2.4840 ha         1 1NP       0.133000
     19 H6           3.8700     0.1070     4.6390 ha         1 1NP       0.132000
@<TRIPOS>BOND
     1     1     2 1   
     2     1    12 1   
     3     2     3 ar  
     4     2     6 ar  
     5     3     4 ar  
     6     3     9 ar  
     7     4     5 ar  
     8     4    13 1   
     9     5    11 ar  
    10     5    14 1   
    11     6     7 ar  
    12     6    15 1   
    13     7     8 ar  
    14     7    16 1   
    15     8     9 ar  
    16     8    17 1   
    17     9    10 ar  
    18    10    11 ar  
    19    10    18 1   
    20    11    19 1   
@<TRIPOS>SUBSTRUCTURE
     1 1NP         1 TEMP              0 ****  ****    0 ROOT
