@<TRIPOS>MOLECULE
molecule
   19    20     1     0     0
SMALL
bcc


@<TRIPOS>ATOM
      1 O1           0.0000     0.0000     0.0000 oh         1 1NP      -0.515100
      2 C1           1.3590     0.0000     0.0000 ca         1 1NP       0.126100
      3 C8A          2.0680     0.0000     1.2180 ca         1 1NP      -0.052000
      4 C8           1.3980     0.0000     2.4520 ca         1 1NP      -0.099000
      5 C7           2.1160     0.0000     3.6080 ca         1 1NP      -0.134000
      6 C2           2.0470    -0.0050    -1.1810 ca         1 1NP      -0.182000
      7 C3           3.4390    -0.0060    -1.1980 ca         1 1NP      -0.107000
      8 C4           4.1550    -0.0010    -0.0400 ca         1 1NP      -0.131000
      9 C4A          3.4840     0.0000     1.1950 ca         1 1NP      -0.020000
     10 C5           4.1930     0.0000     2.4090 ca         1 1NP      -0.123000
     11 C6           3.5100    -0.0000     3.5870 ca         1 1NP      -0.118000
     12 HO1         -0.3140     0.7860    -0.4160 ho         1 1NP       0.421000
     13 H8           0.3150     0.0000     2.4840 ha         1 1NP       0.145000
     14 H7           1.5970    -0.0000     4.5590 ha         1 1NP       0.130000
     15 H2           1.5010    -0.0090    -2.1170 ha         1 1NP       0.135000
     16 H3           3.9600    -0.0100    -2.1470 ha         1 1NP       0.130000
     17 H4           5.2370    -0.0010    -0.0700 ha         1 1NP       0.134000
     18 H5           5.2760     0.0000     2.4070 ha         1 1NP       0.133000
     19 H6           4.0580    -0.0000     4.5220 ha         1 1NP       0.128000
@<TRIPOS>BOND
     1     1     2 1
     2     2     3 ar
     3     2     6 ar
     4     3     4 ar
     5     3     9 ar
     6     4     5 ar
     7     5    11 ar
     8     6     7 ar
     9     7     8 ar
    10     8     9 ar
    11     9    10 ar
    12    10    11 ar
    13     1    12 1
    14     4    13 1
    15     5    14 1
    16     6    15 1
    17     7    16 1
    18     8    17 1
    19    10    18 1
    20    11    19 1
@<TRIPOS>SUBSTRUCTURE
     1 1NP         1 TEMP              0 ****  ****    0 ROOT
