@<TRIPOS>MOLECULE
molecule
   60    63     1     0     0
SMALL
bcc


@<TRIPOS>ATOM
      1 CAA          0.0000     0.0000     0.0000 c3         1 1NQ      -0.113100
      2 CAJ          1.5300     0.0000     0.0000 c3         1 1NQ       0.111000
      3 NAS          2.0180     0.0000     1.3810 ns         1 1NQ      -0.581900
      4 CAX          3.3430    -0.0010     1.6270 c          1 1NQ       0.695700
      5 OAD          4.1340    -0.0010     0.7020 o          1 1NQ      -0.586100
      6 CAZ          3.8340    -0.0000     3.0140 cc         1 1NQ      -0.068700
      7 SAU          2.8170    -0.0010     4.4480 ss         1 1NQ      -0.154800
      8 CAG          5.1500    -0.0060     3.3830 cc         1 1NQ      -0.099000
      9 CAH          5.3650    -0.0040     4.7350 cc         1 1NQ      -0.086000
     10 CBA          4.2300     0.0000     5.4940 cd         1 1NQ      -0.095700
     11 CAY          4.1950     0.0020     6.9660 c          1 1NQ       0.705700
     12 OAE          5.2340    -0.0000     7.5990 o          1 1NQ      -0.597100
     13 NAT          3.0130     0.0070     7.6120 ns         1 1NQ      -0.585900
     14 CAK          2.9780     0.0090     9.0760 c3         1 1NQ       0.115000
     15 CAL          1.5240     0.0140     9.5520 c3         1 1NQ      -0.097400
     16 CBF          1.4880     0.0170    11.0820 c3         1 1NQ      -0.071700
     17 CAN          0.0390     0.1470    11.5590 c3         1 1NQ      -0.081400
     18 CAP          0.0030     0.0880    13.0890 c3         1 1NQ       0.170300
     19 CAM          2.0750    -1.2960    11.6090 c3         1 1NQ      -0.081400
     20 CAO          1.9800    -1.3130    13.1370 c3         1 1NQ       0.170300
     21 NBG          0.5740    -1.1860    13.5430 nh         1 1NQ      -0.694300
     22 C6           0.4390    -1.3300    14.9140 ca         1 1NQ       0.700200
     23 N1          -0.1500    -0.3860    15.6350 nb         1 1NQ      -0.744000
     24 C2          -0.2820    -0.5170    16.9440 ca         1 1NQ       0.731900
     25 N3           0.1530    -1.5660    17.5950 nb         1 1NQ      -0.710000
     26 C4           0.7690    -2.5850    16.9500 ca         1 1NQ       0.464100
     27 CAI          1.2960    -3.7770    17.4640 cd         1 1NQ      -0.065800
     28 C5           0.9200    -2.4820    15.5650 ca         1 1NQ      -0.233700
     29 SAV          1.7310    -3.9150    14.9500 ss         1 1NQ      -0.065500
     30 CBB          1.8500    -4.5980    16.5630 cc         1 1NQ      -0.218600
     31 CAW          2.4640    -5.8990    16.8800 c          1 1NQ       0.538300
     32 OAC          2.5010    -6.2900    18.0310 o          1 1NQ      -0.407100
     33 NAB          2.9850    -6.6560    15.8940 nz         1 1NQ      -0.677400
     34 H1          -0.3610    -0.0000    -1.0210 hc         1 1NQ       0.044367
     35 H2          -0.3610    -0.8840     0.5110 hc         1 1NQ       0.044367
     36 H3          -0.3610     0.8850     0.5110 hc         1 1NQ       0.044367
     37 H4           1.8910     0.8840    -0.5110 h1         1 1NQ       0.058200
     38 H5           1.8910    -0.8840    -0.5110 h1         1 1NQ       0.058200
     39 H6           1.3680     0.0000     2.1420 hn         1 1NQ       0.311500
     40 H7           5.9580    -0.0100     2.6630 ha         1 1NQ       0.182000
     41 H8           6.3580    -0.0070     5.1680 ha         1 1NQ       0.177000
     42 H9           2.1590     0.0120     7.0910 hn         1 1NQ       0.316500
     43 H10          3.4780    -0.8760     9.4510 h1         1 1NQ       0.053200
     44 H11          3.4820     0.8930     9.4480 h1         1 1NQ       0.053200
     45 H12          1.0200    -0.8700     9.1800 hc         1 1NQ       0.054200
     46 H13          1.0240     0.8990     9.1770 hc         1 1NQ       0.054200
     47 H14          2.0680     0.8490    11.4610 hc         1 1NQ       0.062700
     48 H15         -0.3660     1.0940    11.2260 hc         1 1NQ       0.062700
     49 H16         -0.5490    -0.6670    11.1530 hc         1 1NQ       0.062700
     50 H17         -1.0230     0.1640    13.4280 h1         1 1NQ       0.056200
     51 H18          0.5840     0.9080    13.4940 h1         1 1NQ       0.056200
     52 H19          3.1140    -1.3710    11.3120 hc         1 1NQ       0.062700
     53 H20          1.5150    -2.1300    11.2040 hc         1 1NQ       0.062700
     54 H21          2.3790    -2.2480    13.5120 h1         1 1NQ       0.056200
     55 H22          2.5470    -0.4840    13.5420 h1         1 1NQ       0.056200
     56 H23         -0.7600     0.2450    17.5470 h5         1 1NQ       0.088100
     57 H24          1.2650    -4.0140    18.5210 ha         1 1NQ       0.197000
     58 H25          3.3080    -7.5240    16.2750 hn         1 1NQ       0.481467
     59 H26          3.7520    -6.1720    15.4710 hn         1 1NQ       0.481467
     60 HAB3         2.2830    -6.8360    15.2040 hn         1 1NQ       0.481467
@<TRIPOS>BOND
     1     2     3 1
     2     2     1 1
     3     3     4 1
     4     8     9 1
     5     8     6 2
     6     9    10 2
     7     4     6 1
     8     4     5 2
     9     6     7 1
    10    10     7 1
    11    10    11 1
    12    13    14 1
    13    13    11 1
    14    14    15 1
    15    11    12 2
    16    15    16 1
    17    16    17 1
    18    16    19 1
    19    17    18 1
    20    19    20 1
    21    18    21 1
    22    20    21 1
    23    21    22 1
    24    29    28 1
    25    29    30 1
    26    32    31 2
    27    22    28 ar
    28    22    23 ar
    29    28    26 ar
    30    31    30 1
    31    31    33 1
    32    30    27 2
    33    23    24 ar
    34    26    27 1
    35    26    25 ar
    36    24    25 ar
    37     1    34 1
    38     1    35 1
    39     1    36 1
    40     2    37 1
    41     2    38 1
    42     3    39 1
    43     8    40 1
    44     9    41 1
    45    13    42 1
    46    14    43 1
    47    14    44 1
    48    15    45 1
    49    15    46 1
    50    16    47 1
    51    17    48 1
    52    17    49 1
    53    18    50 1
    54    18    51 1
    55    19    52 1
    56    19    53 1
    57    20    54 1
    58    20    55 1
    59    24    56 1
    60    27    57 1
    61    33    58 1
    62    33    59 1
    63    60    33 1
@<TRIPOS>SUBSTRUCTURE
     1 1NQ         1 TEMP              0 ****  ****    0 ROOT
