@<TRIPOS>MOLECULE
1NQ
   60    63     1     0     0
SMALL
bcc


@<TRIPOS>ATOM
      1 CAA          0.0000     0.0000     0.0000 c3         1 1NQ      -0.007100
      2 CAJ          1.5300     0.0000     0.0000 c3         1 1NQ       0.051000
      3 NAS          2.0180     0.0000     1.3810 ns         1 1NQ      -0.190900
      4 CAX          3.3430    -0.0010     1.6270 c          1 1NQ       0.620700
      5 OAD          4.1340    -0.0010     0.7020 o          1 1NQ      -0.629100
      6 CAZ          3.8340    -0.0000     3.0140 cc         1 1NQ      -0.033700
      7 SAU          2.8170    -0.0010     4.4480 ss         1 1NQ      -0.268800
      8 CAG          5.1500    -0.0060     3.3830 cd         1 1NQ      -0.063000
      9 CAH          5.3650    -0.0040     4.7350 cd         1 1NQ      -0.048000
     10 CBA          4.2300     0.0000     5.4940 cc         1 1NQ      -0.066700
     11 CAY          4.1950     0.0020     6.9660 c          1 1NQ       0.633700
     12 OAE          5.2340    -0.0000     7.5990 o          1 1NQ      -0.641100
     13 NAT          3.0130     0.0070     7.6120 ns         1 1NQ      -0.197900
     14 CAK          2.9780     0.0090     9.0760 c3         1 1NQ       0.046000
     15 CAL          1.5240     0.0140     9.5520 c3         1 1NQ      -0.037400
     16 CBF          1.4880     0.0170    11.0820 c3         1 1NQ      -0.049700
     17 CAN          0.0390     0.1470    11.5590 c3         1 1NQ      -0.029400
     18 CAP          0.0030     0.0880    13.0890 c3         1 1NQ       0.136300
     19 CAM          2.0750    -1.2960    11.6090 c3         1 1NQ      -0.029400
     20 CAO          1.9800    -1.3130    13.1370 c3         1 1NQ       0.136300
     21 NBG          0.5740    -1.1860    13.5430 nh         1 1NQ      -0.446300
     22 C6           0.4390    -1.3300    14.9140 ca         1 1NQ       0.573200
     23 N1          -0.1500    -0.3860    15.6350 nb         1 1NQ      -0.622000
     24 C2          -0.2820    -0.5170    16.9440 ca         1 1NQ       0.681900
     25 N3           0.1530    -1.5660    17.5950 nb         1 1NQ      -0.589000
     26 C4           0.7690    -2.5850    16.9500 ca         1 1NQ       0.405100
     27 CAI          1.2960    -3.7770    17.4640 cc         1 1NQ       0.004200
     28 C5           0.9200    -2.4820    15.5650 ca         1 1NQ      -0.185700
     29 SAV          1.7310    -3.9150    14.9500 ss         1 1NQ      -0.165500
     30 CBB          1.8500    -4.5980    16.5630 cd         1 1NQ      -0.220600
     31 CAW          2.4640    -5.8990    16.8800 c          1 1NQ       0.395300
     32 OAC          2.5010    -6.2900    18.0310 o          1 1NQ      -0.424100
     33 NAB          2.9850    -6.6560    15.8940 nz         1 1NQ       0.205600
     34 H1          -0.3610    -0.0000    -1.0210 hc         1 1NQ       0.009367
     35 H2          -0.3610    -0.8840     0.5110 hc         1 1NQ       0.009367
     36 H3          -0.3610     0.8850     0.5110 hc         1 1NQ       0.009367
     37 H4           1.8910     0.8840    -0.5110 h1         1 1NQ       0.028700
     38 H5           1.8910    -0.8840    -0.5110 h1         1 1NQ       0.028700
     39 H6           1.3680     0.0000     2.1420 hn         1 1NQ       0.178500
     40 H7           5.9580    -0.0100     2.6630 ha         1 1NQ       0.147000
     41 H8           6.3580    -0.0070     5.1680 ha         1 1NQ       0.142000
     42 H9           2.1590     0.0120     7.0910 hn         1 1NQ       0.183500
     43 H10          3.4780    -0.8760     9.4510 h1         1 1NQ       0.027700
     44 H11          3.4820     0.8930     9.4480 h1         1 1NQ       0.027700
     45 H12          1.0200    -0.8700     9.1800 hc         1 1NQ       0.025200
     46 H13          1.0240     0.8990     9.1770 hc         1 1NQ       0.025200
     47 H14          2.0680     0.8490    11.4610 hc         1 1NQ       0.038700
     48 H15         -0.3660     1.0940    11.2260 hc         1 1NQ       0.032700
     49 H16         -0.5490    -0.6670    11.1530 hc         1 1NQ       0.032700
     50 H17         -1.0230     0.1640    13.4280 h1         1 1NQ       0.030700
     51 H18          0.5840     0.9080    13.4940 h1         1 1NQ       0.030700
     52 H19          3.1140    -1.3710    11.3120 hc         1 1NQ       0.032700
     53 H20          1.5150    -2.1300    11.2040 hc         1 1NQ       0.032700
     54 H21          2.3790    -2.2480    13.5120 h1         1 1NQ       0.030700
     55 H22          2.5470    -0.4840    13.5420 h1         1 1NQ       0.030700
     56 H23         -0.7600     0.2450    17.5470 h5         1 1NQ       0.020100
     57 H24          1.2650    -4.0140    18.5210 ha         1 1NQ       0.152000
     58 H25          3.3080    -7.5240    16.2750 hn         1 1NQ       0.250133
     59 H26          3.7520    -6.1720    15.4710 hn         1 1NQ       0.250133
     60 HAB3         2.2830    -6.8360    15.2040 hn         1 1NQ       0.250133
@<TRIPOS>BOND
     1     1     2 1   
     2     1    34 1   
     3     1    35 1   
     4     1    36 1   
     5     2     3 1   
     6     2    37 1   
     7     2    38 1   
     8     3     4 1   
     9     3    39 1   
    10     4     5 2   
    11     4     6 1   
    12     6     7 1   
    13     6     8 2   
    14     7    10 1   
    15     8     9 1   
    16     8    40 1   
    17     9    10 2   
    18     9    41 1   
    19    10    11 1   
    20    11    12 2   
    21    11    13 1   
    22    13    14 1   
    23    13    42 1   
    24    14    15 1   
    25    14    43 1   
    26    14    44 1   
    27    15    16 1   
    28    15    45 1   
    29    15    46 1   
    30    16    17 1   
    31    16    19 1   
    32    16    47 1   
    33    17    18 1   
    34    17    48 1   
    35    17    49 1   
    36    18    21 1   
    37    18    50 1   
    38    18    51 1   
    39    19    20 1   
    40    19    52 1   
    41    19    53 1   
    42    20    21 1   
    43    20    54 1   
    44    20    55 1   
    45    21    22 1   
    46    22    23 ar  
    47    22    28 ar  
    48    23    24 ar  
    49    24    25 ar  
    50    24    56 1   
    51    25    26 ar  
    52    26    27 1   
    53    26    28 ar  
    54    27    30 2   
    55    27    57 1   
    56    28    29 1   
    57    29    30 1   
    58    30    31 1   
    59    31    32 2   
    60    31    33 1   
    61    33    58 1   
    62    33    59 1   
    63    33    60 1   
@<TRIPOS>SUBSTRUCTURE
     1 1NQ         1 TEMP              0 ****  ****    0 ROOT
