@<TRIPOS>MOLECULE
1NQ
   62    65     1     0     0
SMALL
bcc


@<TRIPOS>ATOM
      1 CAA          1.6760     2.2860    -1.1950 c3         1 1NQ      -0.141100
      2 CAJ          2.6790     1.1620    -1.0710 c3         1 1NQ       0.115800
      3 NAS          3.0780     0.8780     0.3550 ny         1 1NQ      -0.663800
      4 CAX          2.0590     0.0870     1.1320 c          1 1NQ       0.582700
      5 OAD          1.1070    -0.3690     0.5130 o          1 1NQ      -0.382100
      6 CAZ          2.3080    -0.0710     2.5600 cc         1 1NQ      -0.286700
      7 SAU          1.2670    -0.8870     3.5450 ss         1 1NQ       0.526200
      8 CAG          3.4210     0.4120     3.2750 cd         1 1NQ      -0.105000
      9 CAH          3.3400     0.0710     4.6360 cd         1 1NQ      -0.105000
     10 CBA          2.1680    -0.6620     4.9110 cc         1 1NQ      -0.299700
     11 CAY          1.7660    -1.1960     6.2020 c          1 1NQ       0.590700
     12 OAE          0.8500    -1.9790     6.4180 o          1 1NQ      -0.391100
     13 NAT          2.5640    -0.7330     7.3990 ny         1 1NQ      -0.664800
     14 CAK          1.8670    -0.9370     8.7160 c3         1 1NQ       0.111800
     15 CAL          2.0610    -2.3320     9.3000 c3         1 1NQ      -0.104400
     16 CBF          1.3180    -2.4480    10.6260 c3         1 1NQ      -0.066700
     17 CAN          1.0790    -3.9150    10.9620 c3         1 1NQ      -0.078900
     18 CAP          0.3280    -4.0450    12.2860 c3         1 1NQ       0.158300
     19 CAM          2.0840    -1.8020    11.7710 c3         1 1NQ      -0.078900
     20 CAO          1.3150    -1.9600    13.0840 c3         1 1NQ       0.158300
     21 NBG          1.0050    -3.3600    13.3930 nh         1 1NQ      -0.726300
     22 C6           0.2540    -3.4840    14.6250 ca         1 1NQ       0.665200
     23 N1          -0.9260    -2.8820    14.8270 nb         1 1NQ      -0.690000
     24 C2          -1.5490    -3.0710    16.0480 ca         1 1NQ       0.670900
     25 N3          -1.1150    -3.7990    17.0820 nb         1 1NQ      -0.623000
     26 C4           0.0920    -4.4190    16.8850 ca         1 1NQ       0.423100
     27 CAI          0.7850    -5.2530    17.8210 cc         1 1NQ      -0.168800
     28 C5           0.8430    -4.3030    15.6620 ca         1 1NQ      -0.338700
     29 SAV          2.2500    -5.1480    15.7130 ss         1 1NQ       0.369500
     30 CBB          1.9850    -5.7120    17.2850 cd         1 1NQ      -0.289600
     31 CAW          2.9360    -6.5700    17.9420 c          1 1NQ       0.606300
     32 OAC          4.0080    -7.0060    17.5470 o          1 1NQ      -0.406100
     33 NAB          2.5720    -7.0180    19.3480 nz         1 1NQ      -0.755400
     34 H1           1.4760     2.4440    -2.2890 hc         1 1NQ       0.089700
     35 H2           0.7060     2.0290    -0.7030 hc         1 1NQ       0.089700
     36 H3           2.0640     3.2460    -0.7760 hc         1 1NQ       0.089700
     37 H4           2.2550     0.2100    -1.5080 hx         1 1NQ       0.124700
     38 H5           3.6310     1.4260    -1.6190 hx         1 1NQ       0.124700
     39 H6           3.2350     1.7710     0.8390 hn         1 1NQ       0.466800
     40 H7           4.2620     0.9790     2.8610 ha         1 1NQ       0.183000
     41 H8           4.1180     0.3450     5.3560 ha         1 1NQ       0.180000
     42 H9           3.4520    -1.2520     7.4070 hn         1 1NQ       0.466800
     43 H10          2.2850    -0.1640     9.4260 hx         1 1NQ       0.117200
     44 H11          0.7670    -0.7360     8.5590 hx         1 1NQ       0.117200
     45 H12          3.1510    -2.5460     9.4610 hc         1 1NQ       0.074700
     46 H13          1.6550    -3.0990     8.5850 hc         1 1NQ       0.074700
     47 H14          0.3150    -1.9420    10.5280 hc         1 1NQ       0.066700
     48 H15          2.0600    -4.4550    11.0160 hc         1 1NQ       0.058700
     49 H16          0.4590    -4.4020    10.1650 hc         1 1NQ       0.058700
     50 H17          0.2630    -5.1360    12.5570 h1         1 1NQ       0.064200
     51 H18         -0.7230    -3.6600    12.1370 h1         1 1NQ       0.064200
     52 H19          3.0990    -2.2680    11.8610 hc         1 1NQ       0.058700
     53 H20          2.2220    -0.7060    11.5850 hc         1 1NQ       0.058700
     54 H21          0.3840    -1.3240    13.0240 h1         1 1NQ       0.064200
     55 H22          1.9520    -1.5660    13.9250 h1         1 1NQ       0.064200
     56 H23         -2.5270    -2.5490    16.1660 h5         1 1NQ       0.092100
     57 H24          0.3710    -5.4630    18.8130 ha         1 1NQ       0.178000
     58 H25          3.3140    -7.6270    19.7210 hn         1 1NQ       0.475467
     59 H26          1.6880    -7.5360    19.3320 hn         1 1NQ       0.475467
     60 HAB3         2.4670    -6.2020    19.9590 hn         1 1NQ       0.475467
     61 HAS2         3.9580     0.3460     0.3520 hn         1 1NQ       0.466800
     62 HAT2         2.7700     0.2670     7.2830 hn         1 1NQ       0.466800
@<TRIPOS>BOND
     1     1     2 1   
     2     1    34 1   
     3     1    35 1   
     4     1    36 1   
     5     2     3 1   
     6     2    37 1   
     7     2    38 1   
     8     3     4 1   
     9     3    39 1   
    10     3    61 1   
    11     4     5 2   
    12     4     6 1   
    13     6     7 1   
    14     6     8 2   
    15     7    10 1   
    16     8     9 1   
    17     8    40 1   
    18     9    10 2   
    19     9    41 1   
    20    10    11 1   
    21    11    12 2   
    22    11    13 1   
    23    13    14 1   
    24    13    42 1   
    25    13    62 1   
    26    14    15 1   
    27    14    43 1   
    28    14    44 1   
    29    15    16 1   
    30    15    45 1   
    31    15    46 1   
    32    16    17 1   
    33    16    19 1   
    34    16    47 1   
    35    17    18 1   
    36    17    48 1   
    37    17    49 1   
    38    18    21 1   
    39    18    50 1   
    40    18    51 1   
    41    19    20 1   
    42    19    52 1   
    43    19    53 1   
    44    20    21 1   
    45    20    54 1   
    46    20    55 1   
    47    21    22 1   
    48    22    23 ar  
    49    22    28 ar  
    50    23    24 ar  
    51    24    25 ar  
    52    24    56 1   
    53    25    26 ar  
    54    26    27 1   
    55    26    28 ar  
    56    27    30 2   
    57    27    57 1   
    58    28    29 1   
    59    29    30 1   
    60    30    31 1   
    61    31    32 2   
    62    31    33 1   
    63    33    58 1   
    64    33    59 1   
    65    33    60 1   
@<TRIPOS>SUBSTRUCTURE
     1 1NQ         1 TEMP              0 ****  ****    0 ROOT
