@<TRIPOS>MOLECULE
1NR
   55    57     1     0     0
SMALL
bcc


@<TRIPOS>ATOM
      1 CAY          0.0000     0.0000     0.0000 c3         1 1NR       0.014233
      2 CAX          1.5290     0.0000     0.0000 c3         1 1NR      -0.144000
      3 CAZ          2.0400     0.0000     1.4420 c3         1 1NR       0.014233
      4 CBA          2.0390    -1.2490    -0.7220 c3         1 1NR       0.014233
      5 CAA          2.0310     1.2310    -0.7100 c          1 1NR       0.586100
      6 OAC          1.2440     2.0290    -1.1720 o          1 1NR      -0.644100
      7 NAB          3.3580     1.4440    -0.8340 ns         1 1NR      -0.210900
      8 CAD          3.8450     2.6400    -1.5240 c3         1 1NR       0.045000
      9 CAE          5.3760     2.6390    -1.5250 c3         1 1NR      -0.037400
     10 CAF          5.8850     3.8890    -2.2460 c3         1 1NR      -0.049700
     11 CAK          7.4110     3.9540    -2.1390 c3         1 1NR      -0.029900
     12 CAJ          7.9210     5.1720    -2.9130 c3         1 1NR       0.136300
     13 CAG          5.4870     3.8250    -3.7230 c3         1 1NR      -0.029900
     14 CAH          6.0520     5.0460    -4.4520 c3         1 1NR       0.136300
     15 NAI          7.5150     5.0630    -4.3210 nh         1 1NR      -0.446300
     16 C6           8.0690     6.0820    -5.0760 ca         1 1NR       0.573200
     17 N1           8.8530     6.9910    -4.5120 nb         1 1NR      -0.627000
     18 C2           9.3840     7.9650    -5.2300 ca         1 1NR       0.680900
     19 N3           9.1750     8.0910    -6.5150 nb         1 1NR      -0.584000
     20 C4           8.3900     7.2150    -7.1860 ca         1 1NR       0.405100
     21 CAR          8.0500     7.1800    -8.5440 cc         1 1NR       0.004200
     22 C5           7.8150     6.1670    -6.4600 ca         1 1NR      -0.185700
     23 SAT          6.8530     5.1620    -7.5330 ss         1 1NR      -0.164500
     24 CAS          7.2430     6.1760    -8.9120 cd         1 1NR      -0.222600
     25 CAU          6.7600     5.9480   -10.2840 c          1 1NR       0.395300
     26 OAV          7.0920     6.7020   -11.1780 o          1 1NR      -0.425100
     27 NAW          5.9500     4.9040   -10.5480 nz         1 1NR       0.206600
     28 H1          -0.3610     0.8840     0.5120 hc         1 1NR       0.010367
     29 H2          -0.3610    -0.8850     0.5100 hc         1 1NR       0.010367
     30 H3          -0.3610     0.0010    -1.0210 hc         1 1NR       0.010367
     31 H4           3.0840    -0.2890     1.4550 hc         1 1NR       0.010367
     32 H5           1.9350     0.9930     1.8620 hc         1 1NR       0.010367
     33 H6           1.4620    -0.7040     2.0290 hc         1 1NR       0.010367
     34 H7           1.9240    -1.1200    -1.7920 hc         1 1NR       0.010367
     35 H8           1.4680    -2.1110    -0.4000 hc         1 1NR       0.010367
     36 H9           3.0850    -1.4000    -0.4870 hc         1 1NR       0.010367
     37 H10          4.0080     0.8030    -0.4240 hn         1 1NR       0.181500
     38 H11          3.4850     3.5240    -1.0130 h1         1 1NR       0.026200
     39 H12          3.4840     2.6400    -2.5460 h1         1 1NR       0.026200
     40 H13          5.7360     1.7550    -2.0370 hc         1 1NR       0.024200
     41 H14          5.7370     2.6390    -0.5040 hc         1 1NR       0.024200
     42 H15          5.4540     4.7750    -1.7950 hc         1 1NR       0.038700
     43 H16          7.6960     4.0440    -1.0980 hc         1 1NR       0.032950
     44 H17          7.8410     3.0540    -2.5610 hc         1 1NR       0.032950
     45 H18          7.4980     6.0730    -2.4850 h1         1 1NR       0.030700
     46 H19          9.0020     5.2100    -2.8520 h1         1 1NR       0.030700
     47 H20          4.4070     3.8240    -3.8060 hc         1 1NR       0.032950
     48 H21          5.8910     2.9230    -4.1660 hc         1 1NR       0.032950
     49 H22          5.6420     5.9480    -4.0140 h1         1 1NR       0.030700
     50 H23          5.7850     4.9950    -5.5000 h1         1 1NR       0.030700
     51 H24         10.0200     8.6890    -4.7340 h5         1 1NR       0.020100
     52 H25          8.4080     7.9200    -9.2480 ha         1 1NR       0.151000
     53 H27          5.7630     4.8670   -11.5310 hn         1 1NR       0.249800
     54 H28          5.0900     5.0150   -10.0490 hn         1 1NR       0.249800
     55 HAW3         6.3950     4.0550   -10.2610 hn         1 1NR       0.249800
@<TRIPOS>BOND
     1     1     2 1   
     2     1    28 1   
     3     1    29 1   
     4     1    30 1   
     5     2     3 1   
     6     2     4 1   
     7     2     5 1   
     8     3    31 1   
     9     3    32 1   
    10     3    33 1   
    11     4    34 1   
    12     4    35 1   
    13     4    36 1   
    14     5     6 2   
    15     5     7 1   
    16     7     8 1   
    17     7    37 1   
    18     8     9 1   
    19     8    38 1   
    20     8    39 1   
    21     9    10 1   
    22     9    40 1   
    23     9    41 1   
    24    10    11 1   
    25    10    13 1   
    26    10    42 1   
    27    11    12 1   
    28    11    43 1   
    29    11    44 1   
    30    12    15 1   
    31    12    45 1   
    32    12    46 1   
    33    13    14 1   
    34    13    47 1   
    35    13    48 1   
    36    14    15 1   
    37    14    49 1   
    38    14    50 1   
    39    15    16 1   
    40    16    17 ar  
    41    16    22 ar  
    42    17    18 ar  
    43    18    19 ar  
    44    18    51 1   
    45    19    20 ar  
    46    20    21 1   
    47    20    22 ar  
    48    21    24 2   
    49    21    52 1   
    50    22    23 1   
    51    23    24 1   
    52    24    25 1   
    53    25    26 2   
    54    25    27 1   
    55    27    53 1   
    56    27    54 1   
    57    27    55 1   
@<TRIPOS>SUBSTRUCTURE
     1 1NR         1 TEMP              0 ****  ****    0 ROOT
