@<TRIPOS>MOLECULE
1NR
   56    58     1     0     0
SMALL
bcc


@<TRIPOS>ATOM
      1 CAY          0.0240     0.0000    -1.6500 c3         1 1NR      -0.112100
      2 CAX          0.3400    -0.1500    -0.1710 c3         1 1NR      -0.095000
      3 CAZ         -0.9040     0.1640     0.6570 c3         1 1NR      -0.112100
      4 CBA          0.8230    -1.5590     0.1400 c3         1 1NR      -0.112100
      5 CAA          1.4160     0.8480     0.2360 c          1 1NR       0.549100
      6 OAC          1.3840     1.7050     1.1000 o          1 1NR      -0.399100
      7 NAB          2.7380     0.7650    -0.5240 ny         1 1NR      -0.688800
      8 CAD          2.8920     1.9160    -1.4630 c3         1 1NR       0.105800
      9 CAE          4.2530     1.9790    -2.1410 c3         1 1NR      -0.111400
     10 CAF          5.3730     2.4870    -1.2460 c3         1 1NR      -0.072700
     11 CAK          6.7130     2.2640    -1.9360 c3         1 1NR      -0.083900
     12 CAJ          7.8690     2.8160    -1.1020 c3         1 1NR       0.182300
     13 CAG          5.2180     3.9680    -0.9330 c3         1 1NR      -0.083900
     14 CAH          6.3910     4.4760    -0.0960 c3         1 1NR       0.182300
     15 NAI          7.6820     4.2150    -0.7300 nh         1 1NR      -0.740300
     16 C6           8.8090     4.8150    -0.1020 ca         1 1NR       0.701200
     17 N1           8.7540     5.3130     1.1490 nb         1 1NR      -0.710000
     18 C2           9.8610     5.9770     1.6330 ca         1 1NR       0.685900
     19 N3          11.0280     6.1920     1.0120 nb         1 1NR      -0.647000
     20 C4          11.1000     5.6880    -0.2590 ca         1 1NR       0.439100
     21 CAR         12.2190     5.7940    -1.1490 cc         1 1NR      -0.171800
     22 C5          10.0210     4.9740    -0.8860 ca         1 1NR      -0.355700
     23 SAT         10.3980     4.5120    -2.4210 ss         1 1NR       0.329500
     24 CAS         11.9470     5.1830    -2.3690 cd         1 1NR      -0.283600
     25 CAU         12.8390     5.0990    -3.4950 c          1 1NR       0.607300
     26 OAV         12.7170     4.5100    -4.5600 o          1 1NR      -0.408100
     27 NAW         14.1480     5.8620    -3.3640 nz         1 1NR      -0.756400
     28 H1          -0.2300     1.0590    -1.9000 hc         1 1NR       0.070367
     29 H2          -0.8660    -0.6340    -1.8950 hc         1 1NR       0.070367
     30 H3           0.8710    -0.3410    -2.2920 hc         1 1NR       0.070367
     31 H4          -1.2640     1.2000     0.4480 hc         1 1NR       0.070367
     32 H5          -1.7140    -0.5600     0.3930 hc         1 1NR       0.070367
     33 H6          -0.6820     0.0720     1.7480 hc         1 1NR       0.070367
     34 H7          -0.0280    -2.2730    -0.0070 hc         1 1NR       0.070367
     35 H8           1.6500    -1.8740    -0.5410 hc         1 1NR       0.070367
     36 H9           1.1610    -1.6420     1.2010 hc         1 1NR       0.070367
     37 H10          3.5150     0.7810     0.1480 hn         1 1NR       0.454300
     38 H11          2.0830     1.8150    -2.2450 hx         1 1NR       0.113200
     39 H12          2.7070     2.8610    -0.8720 hx         1 1NR       0.113200
     40 H13          4.5310     0.9730    -2.5580 hc         1 1NR       0.085700
     41 H14          4.1420     2.6750    -3.0190 hc         1 1NR       0.085700
     42 H15          5.3730     1.9130    -0.2770 hc         1 1NR       0.037700
     43 H16          6.6980     2.7560    -2.9440 hc         1 1NR       0.064200
     44 H17          6.8930     1.1680    -2.0890 hc         1 1NR       0.064200
     45 H18          8.8160     2.7360    -1.7130 h1         1 1NR       0.059950
     46 H19          7.9950     2.1680    -0.1850 h1         1 1NR       0.059950
     47 H20          5.1460     4.5510    -1.8880 hc         1 1NR       0.064200
     48 H21          4.2820     4.1550    -0.3460 hc         1 1NR       0.064200
     49 H22          6.3360     4.0050     0.9280 h1         1 1NR       0.059950
     50 H23          6.2860     5.5920     0.0260 h1         1 1NR       0.059950
     51 H24          9.7570     6.3710     2.6710 h5         1 1NR       0.089100
     52 H25         13.1410     6.3000    -0.8460 ha         1 1NR       0.175000
     53 H27         14.6940     5.7650    -4.2300 hn         1 1NR       0.474133
     54 H28         14.6920     5.4890    -2.5790 hn         1 1NR       0.474133
     55 HAW3        13.9570     6.8540    -3.1930 hn         1 1NR       0.474133
     56 HAB2         2.7780    -0.1160    -1.0460 hn         1 1NR       0.454300
@<TRIPOS>BOND
     1     1     2 1   
     2     1    28 1   
     3     1    29 1   
     4     1    30 1   
     5     2     3 1   
     6     2     4 1   
     7     2     5 1   
     8     3    31 1   
     9     3    32 1   
    10     3    33 1   
    11     4    34 1   
    12     4    35 1   
    13     4    36 1   
    14     5     6 2   
    15     5     7 1   
    16     7     8 1   
    17     7    37 1   
    18     7    56 1   
    19     8     9 1   
    20     8    38 1   
    21     8    39 1   
    22     9    10 1   
    23     9    40 1   
    24     9    41 1   
    25    10    11 1   
    26    10    13 1   
    27    10    42 1   
    28    11    12 1   
    29    11    43 1   
    30    11    44 1   
    31    12    15 1   
    32    12    45 1   
    33    12    46 1   
    34    13    14 1   
    35    13    47 1   
    36    13    48 1   
    37    14    15 1   
    38    14    49 1   
    39    14    50 1   
    40    15    16 1   
    41    16    17 ar  
    42    16    22 ar  
    43    17    18 ar  
    44    18    19 ar  
    45    18    51 1   
    46    19    20 ar  
    47    20    21 1   
    48    20    22 ar  
    49    21    24 2   
    50    21    52 1   
    51    22    23 1   
    52    23    24 1   
    53    24    25 1   
    54    25    26 2   
    55    25    27 1   
    56    27    53 1   
    57    27    54 1   
    58    27    55 1   
@<TRIPOS>SUBSTRUCTURE
     1 1NR         1 TEMP              0 ****  ****    0 ROOT
