@<TRIPOS>MOLECULE
1NS
   48    50     1     0     0
SMALL
bcc


@<TRIPOS>ATOM
      1 C01          1.8470     2.1060    -0.8170 c3         1 1NS      -0.481300
      2 S02          1.4320     0.5300    -0.9600 s6         1 1NS       1.423900
      3 N03          1.2550     0.1310     0.9040 ny         1 1NS      -0.713900
      4 C04          2.0840    -1.0260     1.3210 c3         1 1NS       0.108800
      5 C05          1.8510    -1.4950     2.7510 c3         1 1NS      -0.109400
      6 C06          0.4970    -2.1610     2.9620 c3         1 1NS      -0.081700
      7 C07          0.6550    -3.4240     3.7990 c3         1 1NS      -0.080900
      8 C08         -0.6960    -4.0920     4.0530 c3         1 1NS       0.182300
      9 N09         -1.6750    -3.1840     4.6420 nh         1 1NS      -0.739300
     10 C10         -2.8870    -3.8010     5.0590 ca         1 1NS       0.704200
     11 C11         -2.8210    -4.8000     6.1110 ca         1 1NS      -0.356700
     12 C12         -4.0770    -5.3170     6.5820 ca         1 1NS       0.440100
     13 C13         -3.8690    -6.2740     7.6300 cc         1 1NS      -0.172800
     14 C14         -2.5140    -6.4310     7.9020 cd         1 1NS      -0.282600
     15 C15         -1.9390    -7.3060     8.8890 c          1 1NS       0.607300
     16 N16         -2.9290    -8.0690     9.7570 nz         1 1NS      -0.756400
     17 O17         -0.7690    -7.5420     9.1520 o          1 1NS      -0.407100
     18 S18         -1.5440    -5.4530     6.9230 ss         1 1NS       0.329500
     19 N19         -5.2880    -4.9190     6.0810 nb         1 1NS      -0.648000
     20 C20         -5.2160    -3.9970     5.1140 ca         1 1NS       0.686900
     21 N21         -4.0860    -3.4230     4.5730 nb         1 1NS      -0.714000
     22 C22         -1.8240    -1.9330     3.9010 c3         1 1NS       0.182300
     23 C23         -0.4850    -1.2340     3.6620 c3         1 1NS      -0.080900
     24 O24          0.1330     0.3240    -1.3610 o          1 1NS      -0.549300
     25 O25          2.4630    -0.2920    -1.3430 o          1 1NS      -0.549300
     26 H1           1.0820     2.7820    -0.3420 h1         1 1NS       0.182700
     27 H2           2.8140     2.3210    -0.2810 h1         1 1NS       0.182700
     28 H3           2.0140     2.5950    -1.8300 h1         1 1NS       0.182700
     29 H4           0.2750    -0.0970     1.0960 hn         1 1NS       0.448800
     30 H5           1.8730    -1.8730     0.6030 hx         1 1NS       0.111700
     31 H6           3.1690    -0.7310     1.1990 hx         1 1NS       0.111700
     32 H7           2.6730    -2.2320     2.9720 hc         1 1NS       0.086700
     33 H8           1.9810    -0.6430     3.4700 hc         1 1NS       0.086700
     34 H9           0.0650    -2.4580     1.9640 hc         1 1NS       0.051700
     35 H10          1.1480    -3.1680     4.7730 hc         1 1NS       0.059200
     36 H11          1.3070    -4.1630     3.2640 hc         1 1NS       0.059200
     37 H12         -1.0780    -4.5180     3.0790 h1         1 1NS       0.059950
     38 H13         -0.5350    -4.9540     4.7660 h1         1 1NS       0.059950
     39 H14         -4.7100    -6.7820     8.1110 ha         1 1NS       0.175000
     40 H15         -3.5330    -7.4090    10.2570 hn         1 1NS       0.474133
     41 H16         -2.4180    -8.6460    10.4380 hn         1 1NS       0.474133
     42 H17         -6.1780    -3.6430     4.6760 h5         1 1NS       0.089100
     43 H18         -2.4820    -1.2470     4.5070 h1         1 1NS       0.059950
     44 H19         -2.3240    -2.1070     2.9040 h1         1 1NS       0.059950
     45 H20         -0.0530    -0.8920     4.6390 hc         1 1NS       0.059200
     46 H21         -0.6850    -0.3240     3.0410 hc         1 1NS       0.059200
     47 H163        -3.5110    -8.6740     9.1710 hn         1 1NS       0.474133
     48 H032         1.4890     0.9270     1.4940 hn         1 1NS       0.448800
@<TRIPOS>BOND
     1     1     2 1   
     2     1    26 1   
     3     1    27 1   
     4     1    28 1   
     5     2     3 1   
     6     2    24 2   
     7     2    25 2   
     8     3     4 1   
     9     3    29 1   
    10     3    48 1   
    11     4     5 1   
    12     4    30 1   
    13     4    31 1   
    14     5     6 1   
    15     5    32 1   
    16     5    33 1   
    17     6     7 1   
    18     6    23 1   
    19     6    34 1   
    20     7     8 1   
    21     7    35 1   
    22     7    36 1   
    23     8     9 1   
    24     8    37 1   
    25     8    38 1   
    26     9    10 1   
    27     9    22 1   
    28    10    11 ar  
    29    10    21 ar  
    30    11    12 ar  
    31    11    18 1   
    32    12    13 1   
    33    12    19 ar  
    34    13    14 2   
    35    13    39 1   
    36    14    15 1   
    37    14    18 1   
    38    15    16 1   
    39    15    17 2   
    40    16    40 1   
    41    16    41 1   
    42    16    47 1   
    43    19    20 ar  
    44    20    21 ar  
    45    20    42 1   
    46    22    23 1   
    47    22    43 1   
    48    22    44 1   
    49    23    45 1   
    50    23    46 1   
@<TRIPOS>SUBSTRUCTURE
     1 1NS         1 TEMP              0 ****  ****    0 ROOT
