@<TRIPOS>MOLECULE
molecule
   47    49     1     0     0
SMALL
bcc


@<TRIPOS>ATOM
      1 C01          0.0000     0.0000     0.0000 c3         1 1NS      -0.251300
      2 S02          1.8150     0.0000     0.0000 s6         1 1NS       1.325900
      3 N03          2.2270     0.0000     1.6040 n7         1 1NS      -0.918100
      4 C04          1.8910    -1.1500     2.4470 c3         1 1NS       0.231800
      5 C05          2.6870    -1.0770     3.7510 c3         1 1NS      -0.094400
      6 C06          2.3360    -2.2770     4.6320 c3         1 1NS      -0.075700
      7 C07          3.2220    -2.2730     5.8810 c3         1 1NS      -0.080400
      8 C08          2.9450    -1.0040     6.6920 c3         1 1NS       0.167300
      9 N09          1.5280    -0.9660     7.0750 nh         1 1NS      -0.692300
     10 C10          1.2720     0.1010     7.9190 ca         1 1NS       0.699200
     11 C11         -0.0290     0.3290     8.4110 ca         1 1NS      -0.234700
     12 C12         -0.2460     1.4170     9.2610 ca         1 1NS       0.465100
     13 C13         -1.5790     1.5230     9.6730 cc         1 1NS      -0.064800
     14 C14         -2.4070     0.5850     9.1940 cd         1 1NS      -0.219600
     15 C15         -3.8470     0.5040     9.4960 c          1 1NS       0.538300
     16 N16         -4.5930    -0.4840     8.9610 nz         1 1NS      -0.677400
     17 O17         -4.3620     1.3270    10.2270 o          1 1NS      -0.405100
     18 S18         -1.5380    -0.5350     8.1580 ss         1 1NS      -0.067500
     19 N19          0.8160     2.2000     9.5680 nb         1 1NS      -0.706000
     20 C20          2.0060     1.9460     9.0850 ca         1 1NS       0.732900
     21 N21          2.2460     0.9230     8.2830 nb         1 1NS      -0.747000
     22 C22          0.6590    -0.9210     5.8920 c3         1 1NS       0.167300
     23 C23          0.8670    -2.1870     5.0570 c3         1 1NS      -0.080400
     24 O24          2.3130    -1.2370    -0.4890 o          1 1NS      -0.617800
     25 O25          2.3130     1.2370    -0.4910 o          1 1NS      -0.617800
     26 H1          -0.3610    -0.9920     0.2430 h1         1 1NS       0.095700
     27 H2          -0.3610     0.2860    -0.9810 h1         1 1NS       0.095700
     28 H3          -0.3610     0.7060     0.7380 h1         1 1NS       0.095700
     29 H4           2.7110     0.7830     1.9960 hn         1 1NS       0.456800
     30 H5           2.1390    -2.0660     1.9240 h1         1 1NS       0.044200
     31 H6           0.8310    -1.1370     2.6700 h1         1 1NS       0.044200
     32 H7           2.4410    -0.1600     4.2740 hc         1 1NS       0.055700
     33 H8           3.7470    -1.0910     3.5280 hc         1 1NS       0.055700
     34 H9           2.4960    -3.1950     4.0810 hc         1 1NS       0.073700
     35 H10          2.9960    -3.1430     6.4860 hc         1 1NS       0.062700
     36 H11          4.2630    -2.2920     5.5850 hc         1 1NS       0.062700
     37 H12          3.5590    -1.0060     7.5840 h1         1 1NS       0.055950
     38 H13          3.1790    -0.1340     6.0890 h1         1 1NS       0.055950
     39 H14         -1.9190     2.3110    10.3340 ha         1 1NS       0.198000
     40 H15         -4.2020    -1.3700     9.2120 hn         1 1NS       0.481133
     41 H16         -5.5290    -0.4210     9.3100 hn         1 1NS       0.481133
     42 H17          2.8280     2.5960     9.3600 h5         1 1NS       0.088100
     43 H18          0.9080    -0.0520     5.2950 h1         1 1NS       0.055950
     44 H19         -0.3750    -0.8640     6.2080 h1         1 1NS       0.055950
     45 H20          0.2390    -2.1450     4.1750 hc         1 1NS       0.062700
     46 H21          0.6100    -3.0570     5.6500 hc         1 1NS       0.062700
     47 H163        -4.5910    -0.4000     7.9640 hn         1 1NS       0.481133
@<TRIPOS>BOND
     1    25     2 2
     2    24     2 2
     3     3     2 1
     4     3     4 1
     5     2     1 1
     6     4     5 1
     7     5     6 1
     8     6     7 1
     9     6    23 1
    10     7     8 1
    11    23    22 1
    12     8     9 1
    13    22     9 1
    14     9    10 1
    15    17    15 2
    16    18    11 1
    17    18    14 1
    18    10    11 ar
    19    10    21 ar
    20    11    12 ar
    21    15    14 1
    22    15    16 1
    23    14    13 2
    24    21    20 ar
    25    12    13 1
    26    12    19 ar
    27    20    19 ar
    28     1    26 1
    29     1    27 1
    30     1    28 1
    31     3    29 1
    32     4    30 1
    33     4    31 1
    34     5    32 1
    35     5    33 1
    36     6    34 1
    37     7    35 1
    38     7    36 1
    39     8    37 1
    40     8    38 1
    41    13    39 1
    42    16    40 1
    43    16    41 1
    44    20    42 1
    45    22    43 1
    46    22    44 1
    47    23    45 1
    48    23    46 1
    49    47    16 1
@<TRIPOS>SUBSTRUCTURE
     1 1NS         1 TEMP              0 ****  ****    0 ROOT
