@<TRIPOS>MOLECULE
1NS
   47    49     1     0     0
SMALL
bcc


@<TRIPOS>ATOM
      1 C01          0.0000     0.0000     0.0000 c3         1 1NS       0.008700
      2 S02          1.8150     0.0000     0.0000 s6         1 1NS       0.957900
      3 N03          2.2270     0.0000     1.6040 n7         1 1NS      -0.607100
      4 C04          1.8910    -1.1500     2.4470 c3         1 1NS       0.223800
      5 C05          2.6870    -1.0770     3.7510 c3         1 1NS      -0.053400
      6 C06          2.3360    -2.2770     4.6320 c3         1 1NS      -0.048700
      7 C07          3.2220    -2.2730     5.8810 c3         1 1NS      -0.025400
      8 C08          2.9450    -1.0040     6.6920 c3         1 1NS       0.126300
      9 N09          1.5280    -0.9660     7.0750 nh         1 1NS      -0.441300
     10 C10          1.2720     0.1010     7.9190 ca         1 1NS       0.572200
     11 C11         -0.0290     0.3290     8.4110 ca         1 1NS      -0.186700
     12 C12         -0.2460     1.4170     9.2610 ca         1 1NS       0.405100
     13 C13         -1.5790     1.5230     9.6730 cc         1 1NS       0.005200
     14 C14         -2.4070     0.5850     9.1940 cd         1 1NS      -0.222600
     15 C15         -3.8470     0.5040     9.4960 c          1 1NS       0.395300
     16 N16         -4.5930    -0.4840     8.9610 nz         1 1NS       0.205600
     17 O17         -4.3620     1.3270    10.2270 o          1 1NS      -0.423100
     18 S18         -1.5380    -0.5350     8.1580 ss         1 1NS      -0.166500
     19 N19          0.8160     2.2000     9.5680 nb         1 1NS      -0.584000
     20 C20          2.0060     1.9460     9.0850 ca         1 1NS       0.681900
     21 N21          2.2460     0.9230     8.2830 nb         1 1NS      -0.627000
     22 C22          0.6590    -0.9210     5.8920 c3         1 1NS       0.126300
     23 C23          0.8670    -2.1870     5.0570 c3         1 1NS      -0.025400
     24 O24          2.3130    -1.2370    -0.4890 o          1 1NS      -0.573300
     25 O25          2.3130     1.2370    -0.4910 o          1 1NS      -0.573300
     26 H1          -0.3610    -0.9920     0.2430 h1         1 1NS       0.060700
     27 H2          -0.3610     0.2860    -0.9810 h1         1 1NS       0.060700
     28 H3          -0.3610     0.7060     0.7380 h1         1 1NS       0.060700
     29 H4           2.7110     0.7830     1.9960 hn         1 1NS       0.353800
     30 H5           2.1390    -2.0660     1.9240 h1         1 1NS       0.014200
     31 H6           0.8310    -1.1370     2.6700 h1         1 1NS       0.014200
     32 H7           2.4410    -0.1600     4.2740 hc         1 1NS       0.029200
     33 H8           3.7470    -1.0910     3.5280 hc         1 1NS       0.029200
     34 H9           2.4960    -3.1950     4.0810 hc         1 1NS       0.046700
     35 H10          2.9960    -3.1430     6.4860 hc         1 1NS       0.031700
     36 H11          4.2630    -2.2920     5.5850 hc         1 1NS       0.031700
     37 H12          3.5590    -1.0060     7.5840 h1         1 1NS       0.032950
     38 H13          3.1790    -0.1340     6.0890 h1         1 1NS       0.032950
     39 H14         -1.9190     2.3110    10.3340 ha         1 1NS       0.152000
     40 H15         -4.2020    -1.3700     9.2120 hn         1 1NS       0.249467
     41 H16         -5.5290    -0.4210     9.3100 hn         1 1NS       0.249467
     42 H17          2.8280     2.5960     9.3600 h5         1 1NS       0.021100
     43 H18          0.9080    -0.0520     5.2950 h1         1 1NS       0.032950
     44 H19         -0.3750    -0.8640     6.2080 h1         1 1NS       0.032950
     45 H20          0.2390    -2.1450     4.1750 hc         1 1NS       0.031700
     46 H21          0.6100    -3.0570     5.6500 hc         1 1NS       0.031700
     47 H163        -4.5910    -0.4000     7.9640 hn         1 1NS       0.249467
@<TRIPOS>BOND
     1     1     2 1   
     2     1    26 1   
     3     1    27 1   
     4     1    28 1   
     5     2     3 1   
     6     2    24 2   
     7     2    25 2   
     8     3     4 1   
     9     3    29 1   
    10     4     5 1   
    11     4    30 1   
    12     4    31 1   
    13     5     6 1   
    14     5    32 1   
    15     5    33 1   
    16     6     7 1   
    17     6    23 1   
    18     6    34 1   
    19     7     8 1   
    20     7    35 1   
    21     7    36 1   
    22     8     9 1   
    23     8    37 1   
    24     8    38 1   
    25     9    10 1   
    26     9    22 1   
    27    10    11 ar  
    28    10    21 ar  
    29    11    12 ar  
    30    11    18 1   
    31    12    13 1   
    32    12    19 ar  
    33    13    14 2   
    34    13    39 1   
    35    14    15 1   
    36    14    18 1   
    37    15    16 1   
    38    15    17 2   
    39    16    40 1   
    40    16    41 1   
    41    16    47 1   
    42    19    20 ar  
    43    20    21 ar  
    44    20    42 1   
    45    22    23 1   
    46    22    43 1   
    47    22    44 1   
    48    23    45 1   
    49    23    46 1   
@<TRIPOS>SUBSTRUCTURE
     1 1NS         1 TEMP              0 ****  ****    0 ROOT
