@<TRIPOS>MOLECULE
1NT
   38    37     1     0     0
SMALL
bcc


@<TRIPOS>ATOM
      1 O2P          2.2300    -0.9890    -0.9770 o          1 1NT      -0.947500
      2 P            3.0790     0.0720    -0.3350 p5         1 1NT       1.398900
      3 O3P          3.2210    -0.0430     1.1610 o          1 1NT      -0.947500
      4 O1P          4.3860     0.3250    -1.0410 o          1 1NT      -0.947500
      5 O2           2.2030     1.6060    -0.5700 os         1 1NT      -0.654200
      6 C2           1.0080     2.2570    -0.6230 c3         1 1NT       0.403600
      7 C1           1.2660     3.7800    -0.8960 c          1 1NT       0.894600
      8 O1           1.3040     4.2490    -2.0820 o          1 1NT      -0.908300
      9 O2'          1.4170     4.5600     0.0980 o          1 1NT      -0.908300
     10 O3           0.4050     2.1580     0.6810 oh         1 1NT      -0.696800
     11 CI3         -0.0310     1.6380    -1.5960 c3         1 1NT      -0.126400
     12 CA1         -1.3520     2.4060    -1.7040 c3         1 1NT       0.132100
     13 OA1         -1.3330     3.3310    -2.7870 oh         1 1NT      -0.677800
     14 CA2         -2.5830     1.4960    -1.9630 c3         1 1NT       0.154100
     15 OA2         -2.6810     0.4750    -0.9870 oh         1 1NT      -0.611800
     16 CA3         -3.9000     2.3100    -2.0090 c3         1 1NT       0.111100
     17 OA3         -4.1960     2.6670    -0.6600 oh         1 1NT      -0.619800
     18 CA4         -5.0910     1.5370    -2.6250 c3         1 1NT       0.091100
     19 OA4         -4.7430     1.2170    -3.9650 oh         1 1NT      -0.640800
     20 CA5         -6.4190     2.3440    -2.5650 c3         1 1NT       0.174400
     21 OP4         -7.2710     1.9430    -3.5680 os         1 1NT      -0.583200
     22 PA          -8.9720     2.0960    -3.2630 p5         1 1NT       1.327900
     23 OP3         -9.5570     1.0960    -4.2290 o          1 1NT      -0.943167
     24 OP1         -9.1130     1.7500    -1.8030 o          1 1NT      -0.943167
     25 OP2         -9.2620     3.5380    -3.5980 o          1 1NT      -0.943167
     26 HO3          1.0720     2.4870     1.2920 ho         1 1NT       0.401000
     27 HI31        -0.2380     0.5910    -1.2550 hc         1 1NT       0.061200
     28 HI32         0.4580     1.5940    -2.6020 hc         1 1NT       0.061200
     29 HA1         -1.5320     2.9740    -0.7470 h1         1 1NT       0.046700
     30 HOA1        -0.4530     3.7470    -2.7730 ho         1 1NT       0.454000
     31 HA2         -2.4750     0.9620    -2.9460 h1         1 1NT       0.074700
     32 HOA2        -2.4450     0.8780    -0.1420 ho         1 1NT       0.410000
     33 HA3         -3.7150     3.2440    -2.6090 h1         1 1NT       0.051700
     34 HOA3        -5.0740     3.0630    -0.6670 ho         1 1NT       0.389000
     35 HA4         -5.2150     0.5680    -2.0670 h1         1 1NT       0.033700
     36 HOA4        -5.5610     1.2770    -4.4830 ho         1 1NT       0.427000
     37 HA51        -6.1460     3.4360    -2.6890 h1         1 1NT       0.001200
     38 HA52        -6.9060     2.1980    -1.5600 h1         1 1NT       0.001200
@<TRIPOS>BOND
     1     1     2 1   
     2     2     3 1   
     3     2     4 1   
     4     2     5 1   
     5     5     6 1   
     6     6     7 1   
     7     6    10 1   
     8     6    11 1   
     9     7     8 1   
    10     7     9 1   
    11    10    26 1   
    12    11    12 1   
    13    11    27 1   
    14    11    28 1   
    15    12    13 1   
    16    12    14 1   
    17    12    29 1   
    18    13    30 1   
    19    14    15 1   
    20    14    16 1   
    21    14    31 1   
    22    15    32 1   
    23    16    17 1   
    24    16    18 1   
    25    16    33 1   
    26    17    34 1   
    27    18    19 1   
    28    18    20 1   
    29    18    35 1   
    30    19    36 1   
    31    20    21 1   
    32    20    37 1   
    33    20    38 1   
    34    21    22 1   
    35    22    23 1   
    36    22    24 1   
    37    22    25 1   
@<TRIPOS>SUBSTRUCTURE
     1 1NT         1 TEMP              0 ****  ****    0 ROOT
