@<TRIPOS>MOLECULE
1NT
   38    37     1     0     0
SMALL
bcc


@<TRIPOS>ATOM
      1 O2P        -0.3140    0.1000    0.7440 o         1 1NT     -0.946500
      2 P           1.0400   -0.0540    0.1090 p5        1 1NT      1.390900
      3 O3P         2.1670    0.1660    1.0820 o         1 1NT     -0.946500
      4 O1P         1.2030   -1.2630   -0.7810 o         1 1NT     -0.946500
      5 O2          1.2970    1.2580   -1.0540 os        1 1NT     -0.643200
      6 C2          1.0870    1.5470   -2.3690 c3        1 1NT      0.398600
      7 C1         -0.3850    1.8910   -2.7960 c         1 1NT      0.891600
      8 O1         -0.8450    3.0620   -2.5890 o         1 1NT     -0.902800
      9 O2'        -1.0810    1.0440   -3.4390 o         1 1NT     -0.902800
     10 O3          1.5430    0.4420   -3.1640 oh        1 1NT     -0.729800
     11 CI3         1.9320    2.7870   -2.8220 c3        1 1NT     -0.114400
     12 CA1         3.4550    2.7040   -2.7740 c3        1 1NT      0.138100
     13 OA1         3.9780    1.7370   -3.6780 oh        1 1NT     -0.666800
     14 CA2         4.0850    4.0660   -3.1830 c3        1 1NT      0.146100
     15 OA2         3.7500    5.0640   -2.2300 oh        1 1NT     -0.616800
     16 CA3         5.6200    4.0210   -3.3710 c3        1 1NT      0.112100
     17 OA3         6.1800    3.9900   -2.0590 oh        1 1NT     -0.622800
     18 CA4         6.1690    5.2420   -4.1490 c3        1 1NT      0.088100
     19 OA4         5.5950    5.2100   -5.4480 oh        1 1NT     -0.641800
     20 CA5         7.7220    5.2630   -4.2200 c3        1 1NT      0.176400
     21 OP4         8.1410    5.9580   -5.3310 os        1 1NT     -0.583200
     22 PA          9.6380    6.8280   -5.2070 p5        1 1NT      1.326900
     23 OP3         9.6520    7.3250   -3.7850 o         1 1NT     -0.942500
     24 OP1         9.4720    7.8880   -6.2670 o         1 1NT     -0.942500
     25 OP2        10.6780    5.7820   -5.5190 o         1 1NT     -0.942500
     26 HO3         1.3530   -0.3510   -2.6290 ho        1 1NT      0.451000
     27 HI31        1.6060    3.6340   -2.1670 hc        1 1NT      0.039200
     28 HI32        1.6280    3.0110   -3.8770 hc        1 1NT      0.039200
     29 HA1         3.7880    2.4360   -1.7320 h1        1 1NT      0.056700
     30 HOA1        3.4100    0.9560   -3.5850 ho        1 1NT      0.444000
     31 HA2         3.6330    4.4210   -4.1500 h1        1 1NT      0.076700
     32 HOA2        4.0070    4.7110   -1.3690 ho        1 1NT      0.403000
     33 HA3         5.8890    3.0750   -3.9170 h1        1 1NT      0.056700
     34 HOA3        7.1340    4.0790   -2.1660 ho        1 1NT      0.392000
     35 HA4         5.8060    6.1780   -3.6410 h1        1 1NT      0.032700
     36 HOA4        6.2710    5.5440   -6.0570 ho        1 1NT      0.428000
     37 HA51        8.1370    5.7350   -3.2850 h1        1 1NT      0.001700
     38 HA52        8.0630    4.1840   -4.2750 h1        1 1NT      0.001700
@<TRIPOS>BOND
     1    1    2 1
     2    2    3 1
     3    2    4 1
     4    2    5 1
     5    5    6 1
     6    6    7 1
     7    6   10 1
     8    6   11 1
     9    7    8 1
    10    7    9 1
    11   10   26 1
    12   11   12 1
    13   11   27 1
    14   11   28 1
    15   12   13 1
    16   12   14 1
    17   12   29 1
    18   13   30 1
    19   14   15 1
    20   14   16 1
    21   14   31 1
    22   15   32 1
    23   16   17 1
    24   16   18 1
    25   16   33 1
    26   17   34 1
    27   18   19 1
    28   18   20 1
    29   18   35 1
    30   19   36 1
    31   20   21 1
    32   20   37 1
    33   20   38 1
    34   21   22 1
    35   22   23 1
    36   22   24 1
    37   22   25 1
@<TRIPOS>SUBSTRUCTURE
     1 1NT         1 TEMP              0 ****  ****    0 ROOT
