@<TRIPOS>MOLECULE
1NU
   44    47     1     0     0
SMALL
bcc


@<TRIPOS>ATOM
      1 C1          -0.1310     0.0990    -0.4510 ca         1 1NU       0.192900
      2 C2           1.2190     0.3820    -0.7120 ca         1 1NU      -0.218500
      3 C3           2.0520     0.7690     0.3500 ca         1 1NU       0.195900
      4 C4           1.5460     0.8860     1.6540 ca         1 1NU      -0.218500
      5 C5           0.1940     0.5930     1.8930 ca         1 1NU       0.192900
      6 C6          -0.6660     0.1810     0.8530 ca         1 1NU      -0.212300
      7 C7          -2.1170    -0.1080     1.1120 c3         1 1NU       0.273100
      8 N8          -3.6200    -2.9560    -0.7160 nc         1 1NU      -0.670100
      9 C9          -3.1530    -1.7950    -0.3550 cd         1 1NU       0.676100
     10 N10         -2.5410    -1.4670     0.8620 na         1 1NU      -0.641000
     11 C11         -2.3580    -2.4970     1.8000 ca         1 1NU       0.178600
     12 C12         -2.8340    -3.8010     1.4820 ca         1 1NU      -0.206600
     13 C13         -2.6710    -4.8540     2.3860 ca         1 1NU      -0.063000
     14 C14         -2.0570    -4.6150     3.6140 ca         1 1NU       0.048100
     15 C15         -1.5880    -3.3350     3.9520 ca         1 1NU      -0.068000
     16 C16         -1.7300    -2.2910     3.0510 ca         1 1NU      -0.179000
     17 C17         -3.5080    -4.0530     0.1790 c          1 1NU       0.700100
     18 O18         -3.9600    -5.1680    -0.1200 o          1 1NU      -0.524100
     19 F19         -0.2620    -8.1320     4.7120 f          1 1NU      -0.235300
     20 O20         -1.7440    -5.6450     4.5010 os         1 1NU      -0.236200
     21 C21         -2.7960    -6.4150     4.9740 ca         1 1NU       0.167100
     22 C22         -4.1480    -6.0890     4.8070 ca         1 1NU      -0.196000
     23 C23         -5.1230    -6.9190     5.3530 ca         1 1NU      -0.066000
     24 C24         -4.7600    -8.0640     6.0640 ca         1 1NU      -0.164000
     25 C25         -3.4150    -8.3850     6.2320 ca         1 1NU      -0.055000
     26 C26         -2.4210    -7.5670     5.6910 ca         1 1NU      -0.196300
     27 C27         -0.9520    -7.9180     5.8790 c3         1 1NU       0.702200
     28 F28          3.3540     1.0420     0.1120 f          1 1NU      -0.117900
     29 F29         -0.7280    -9.0630     6.6080 f          1 1NU      -0.235300
     30 F30         -0.2180    -6.9620     6.5400 f          1 1NU      -0.235300
     31 F31         -0.9330    -0.2450    -1.4850 f          1 1NU      -0.128400
     32 F32         -0.2820     0.7250     3.1540 f          1 1NU      -0.128400
     33 H1           1.6160     0.3000    -1.7350 ha         1 1NU       0.177500
     34 H2           2.2000     1.2010     2.4810 ha         1 1NU       0.177500
     35 H3          -2.3660     0.1550     2.1820 h1         1 1NU       0.079700
     36 H4          -2.7240     0.5730     0.4420 h1         1 1NU       0.079700
     37 H5          -3.2410    -0.9550    -1.0820 h5         1 1NU       0.061800
     38 H6          -3.0340    -5.8600     2.1140 ha         1 1NU       0.180000
     39 H7          -1.0950    -3.1760     4.9230 ha         1 1NU       0.161000
     40 H8          -1.3370    -1.3000     3.3270 ha         1 1NU       0.150000
     41 H9          -4.4330    -5.1860     4.2470 ha         1 1NU       0.155000
     42 H10         -6.1860    -6.6670     5.2210 ha         1 1NU       0.143000
     43 H11         -5.5360    -8.7170     6.4910 ha         1 1NU       0.145000
     44 H12         -3.1260    -9.2890     6.7940 ha         1 1NU       0.156000
@<TRIPOS>BOND
     1     1     2 ar  
     2     1     6 ar  
     3     1    31 1   
     4     2     3 ar  
     5     2    33 1   
     6     3     4 ar  
     7     3    28 1   
     8     4     5 ar  
     9     4    34 1   
    10     5     6 ar  
    11     5    32 1   
    12     6     7 1   
    13     7    10 1   
    14     7    35 1   
    15     7    36 1   
    16     8     9 2   
    17     8    17 1   
    18     9    10 1   
    19     9    37 1   
    20    10    11 1   
    21    11    12 ar  
    22    11    16 ar  
    23    12    13 ar  
    24    12    17 1   
    25    13    14 ar  
    26    13    38 1   
    27    14    15 ar  
    28    14    20 1   
    29    15    16 ar  
    30    15    39 1   
    31    16    40 1   
    32    17    18 2   
    33    19    27 1   
    34    20    21 1   
    35    21    22 ar  
    36    21    26 ar  
    37    22    23 ar  
    38    22    41 1   
    39    23    24 ar  
    40    23    42 1   
    41    24    25 ar  
    42    24    43 1   
    43    25    26 ar  
    44    25    44 1   
    45    26    27 1   
    46    27    29 1   
    47    27    30 1   
@<TRIPOS>SUBSTRUCTURE
     1 1NU         1 TEMP              0 ****  ****    0 ROOT
