@<TRIPOS>MOLECULE
molecule
   44    47     1     0     0
SMALL
bcc


@<TRIPOS>ATOM
      1 C1           0.0000     0.0000     0.0000 ca         1 1NU       0.201900
      2 C2           1.3840     0.0000     0.0000 ca         1 1NU      -0.220000
      3 C3           2.0760     0.0000     1.2000 ca         1 1NU       0.202900
      4 C4           1.3840    -0.0000     2.3980 ca         1 1NU      -0.220000
      5 C5           0.0000     0.0000     2.3980 ca         1 1NU       0.201900
      6 C6          -0.6930     0.0060     1.1990 ca         1 1NU      -0.225300
      7 C7          -2.1990     0.0130     1.1980 c3         1 1NU       0.265100
      8 N8          -3.2240    -3.1330    -0.3540 nc         1 1NU      -0.714100
      9 C9          -2.7940    -1.9180    -0.1530 cd         1 1NU       0.694100
     10 N10         -2.6940    -1.3610     1.0660 na         1 1NU      -0.619000
     11 C11         -3.0540    -2.0720     2.1950 ca         1 1NU       0.162600
     12 C12         -3.5250    -3.3880     2.0340 ca         1 1NU      -0.213600
     13 C13         -3.8970    -4.1380     3.1460 ca         1 1NU      -0.055000
     14 C14         -3.8000    -3.5760     4.4070 ca         1 1NU       0.058100
     15 C15         -3.3330    -2.2740     4.5630 ca         1 1NU      -0.072000
     16 C16         -2.9630    -1.5240     3.4670 ca         1 1NU      -0.182000
     17 C17         -3.6040    -3.9280     0.6650 c          1 1NU       0.718100
     18 O18         -4.0040    -5.0610     0.4600 o          1 1NU      -0.530100
     19 F19         -4.8870    -6.4800     9.0160 f          1 1NU      -0.221967
     20 O20         -4.1600    -4.3010     5.4980 os         1 1NU      -0.233200
     21 C21         -3.3140    -5.2750     5.9250 ca         1 1NU       0.180100
     22 C22         -2.1740    -5.5750     5.1940 ca         1 1NU      -0.215000
     23 C23         -1.3160    -6.5660     5.6300 ca         1 1NU      -0.063000
     24 C24         -1.5920    -7.2590     6.7940 ca         1 1NU      -0.168000
     25 C25         -2.7290    -6.9630     7.5250 ca         1 1NU      -0.051000
     26 C26         -3.5870    -5.9690     7.0960 ca         1 1NU      -0.208300
     27 C27         -4.8240    -5.6460     7.8930 c3         1 1NU       0.684200
     28 F28          3.4270    -0.0000     1.2000 f          1 1NU      -0.116900
     29 F29         -5.9570    -5.8500     7.0980 f          1 1NU      -0.221967
     30 F30         -4.7780    -4.3110     8.3060 f          1 1NU      -0.221967
     31 F31         -0.6760    -0.0000    -1.1700 f          1 1NU      -0.124900
     32 F32         -0.6760     0.0000     3.5680 f          1 1NU      -0.124900
     33 H1           1.9260    -0.0020    -0.9380 ha         1 1NU       0.172500
     34 H2           1.9250    -0.0020     3.3370 ha         1 1NU       0.172500
     35 H3          -2.5570     0.6070     0.3670 h1         1 1NU       0.083700
     36 H4          -2.5590     0.4380     2.1270 h1         1 1NU       0.083700
     37 H5          -2.5020    -1.3280    -1.0130 h5         1 1NU       0.065800
     38 H6          -4.2610    -5.1510     3.0260 ha         1 1NU       0.177000
     39 H7          -3.2610    -1.8460     5.5560 ha         1 1NU       0.155000
     40 H8          -2.6010    -0.5120     3.5980 ha         1 1NU       0.155000
     41 H9          -1.9560    -5.0320     4.2820 ha         1 1NU       0.152000
     42 H10         -0.4250    -6.8000     5.0590 ha         1 1NU       0.139000
     43 H11         -0.9190    -8.0370     7.1320 ha         1 1NU       0.141000
     44 H12         -2.9420    -7.5060     8.4370 ha         1 1NU       0.155000
@<TRIPOS>BOND
     1    28     3 1   
     2    29    27 1   
     3    19    27 1   
     4     3     2 ar  
     5     3     4 ar  
     6    30    27 1   
     7    27    26 1   
     8     2     1 ar  
     9     4     5 ar  
    10    26    25 ar  
    11    26    21 ar  
    12     1    31 1   
    13     1     6 ar  
    14    20    21 1   
    15    20    14 1   
    16     5     6 ar  
    17     5    32 1   
    18    25    24 ar  
    19    21    22 ar  
    20    14    15 ar  
    21    14    13 ar  
    22     6     7 1   
    23    15    16 ar  
    24    13    12 ar  
    25    16    11 ar  
    26    12    11 ar  
    27    12    17 1   
    28    18    17 2   
    29    24    23 ar  
    30    11    10 1   
    31    17     8 1   
    32    22    23 ar  
    33     7    10 1   
    34    10     9 1   
    35     8     9 2   
    36     2    33 1   
    37     4    34 1   
    38     7    35 1   
    39     7    36 1   
    40     9    37 1   
    41    13    38 1   
    42    15    39 1   
    43    16    40 1   
    44    22    41 1   
    45    23    42 1   
    46    24    43 1   
    47    25    44 1   
@<TRIPOS>SUBSTRUCTURE
     1 1NU         1 TEMP              0 ****  ****    0 ROOT
