@<TRIPOS>MOLECULE
1NU
   44    47     1     0     0
SMALL
bcc


@<TRIPOS>ATOM
      1 C1           0.0000     0.0000     0.0000 ca         1 1NU       0.177400
      2 C2           1.3840     0.0000     0.0000 ca         1 1NU      -0.174000
      3 C3           2.0760     0.0000     1.2000 ca         1 1NU       0.177900
      4 C4           1.3840    -0.0000     2.3980 ca         1 1NU      -0.174000
      5 C5           0.0000     0.0000     2.3980 ca         1 1NU       0.177400
      6 C6          -0.6930     0.0060     1.1990 ca         1 1NU      -0.216300
      7 C7          -2.1990     0.0130     1.1980 c3         1 1NU       0.199100
      8 N8          -3.2240    -3.1330    -0.3540 nc         1 1NU      -0.624100
      9 C9          -2.7940    -1.9180    -0.1530 cd         1 1NU       0.516100
     10 N10         -2.6940    -1.3610     1.0660 na         1 1NU      -0.187000
     11 C11         -3.0540    -2.0720     2.1950 ca         1 1NU       0.011600
     12 C12         -3.5250    -3.3880     2.0340 ca         1 1NU      -0.208600
     13 C13         -3.8970    -4.1380     3.1460 ca         1 1NU      -0.024000
     14 C14         -3.8000    -3.5760     4.4070 ca         1 1NU       0.062100
     15 C15         -3.3330    -2.2740     4.5630 ca         1 1NU      -0.043000
     16 C16         -2.9630    -1.5240     3.4670 ca         1 1NU      -0.166000
     17 C17         -3.6040    -3.9280     0.6650 c          1 1NU       0.723100
     18 O18         -4.0040    -5.0610     0.4600 o          1 1NU      -0.566100
     19 F19         -4.8870    -6.4800     9.0160 f          1 1NU      -0.208300
     20 O20         -4.1600    -4.3010     5.4980 os         1 1NU      -0.207200
     21 C21         -3.3140    -5.2750     5.9250 ca         1 1NU       0.202100
     22 C22         -2.1740    -5.5750     5.1940 ca         1 1NU      -0.211000
     23 C23         -1.3160    -6.5660     5.6300 ca         1 1NU      -0.021000
     24 C24         -1.5920    -7.2590     6.7940 ca         1 1NU      -0.147000
     25 C25         -2.7290    -6.9630     7.5250 ca         1 1NU      -0.009000
     26 C26         -3.5870    -5.9690     7.0960 ca         1 1NU      -0.248300
     27 C27         -4.8240    -5.6460     7.8930 c3         1 1NU       0.653200
     28 F28          3.4270    -0.0000     1.2000 f          1 1NU      -0.111900
     29 F29         -5.9570    -5.8500     7.0980 f          1 1NU      -0.208300
     30 F30         -4.7780    -4.3110     8.3060 f          1 1NU      -0.208300
     31 F31         -0.6760    -0.0000    -1.1700 f          1 1NU      -0.114400
     32 F32         -0.6760     0.0000     3.5680 f          1 1NU      -0.114400
     33 H1           1.9260    -0.0020    -0.9380 ha         1 1NU       0.145500
     34 H2           1.9250    -0.0020     3.3370 ha         1 1NU       0.145500
     35 H3          -2.5570     0.6070     0.3670 h1         1 1NU       0.054700
     36 H4          -2.5590     0.4380     2.1270 h1         1 1NU       0.054700
     37 H5          -2.5020    -1.3280    -1.0130 h5         1 1NU       0.015800
     38 H6          -4.2610    -5.1510     3.0260 ha         1 1NU       0.144000
     39 H7          -3.2610    -1.8460     5.5560 ha         1 1NU       0.121000
     40 H8          -2.6010    -0.5120     3.5980 ha         1 1NU       0.138000
     41 H9          -1.9560    -5.0320     4.2820 ha         1 1NU       0.133000
     42 H10         -0.4250    -6.8000     5.0590 ha         1 1NU       0.105000
     43 H11         -0.9190    -8.0370     7.1320 ha         1 1NU       0.113000
     44 H12         -2.9420    -7.5060     8.4370 ha         1 1NU       0.122000
@<TRIPOS>BOND
     1     1     2 ar  
     2     1     6 ar  
     3     1    31 1   
     4     2     3 ar  
     5     2    33 1   
     6     3     4 ar  
     7     3    28 1   
     8     4     5 ar  
     9     4    34 1   
    10     5     6 ar  
    11     5    32 1   
    12     6     7 1   
    13     7    10 1   
    14     7    35 1   
    15     7    36 1   
    16     8     9 2   
    17     8    17 1   
    18     9    10 1   
    19     9    37 1   
    20    10    11 1   
    21    11    12 ar  
    22    11    16 ar  
    23    12    13 ar  
    24    12    17 1   
    25    13    14 ar  
    26    13    38 1   
    27    14    15 ar  
    28    14    20 1   
    29    15    16 ar  
    30    15    39 1   
    31    16    40 1   
    32    17    18 2   
    33    19    27 1   
    34    20    21 1   
    35    21    22 ar  
    36    21    26 ar  
    37    22    23 ar  
    38    22    41 1   
    39    23    24 ar  
    40    23    42 1   
    41    24    25 ar  
    42    24    43 1   
    43    25    26 ar  
    44    25    44 1   
    45    26    27 1   
    46    27    29 1   
    47    27    30 1   
@<TRIPOS>SUBSTRUCTURE
     1 1NU         1 TEMP              0 ****  ****    0 ROOT
