@<TRIPOS>MOLECULE
1NV
   49    52     1     0     0
SMALL
bcc


@<TRIPOS>ATOM
      1 C1           0.0000     0.0000     0.0000 ca         1 1NV       0.179400
      2 C2           1.3840     0.0000     0.0000 ca         1 1NV      -0.175000
      3 C3           2.0760     0.0000     1.1990 ca         1 1NV       0.183900
      4 C4           1.3850     0.0000     2.3980 ca         1 1NV      -0.175000
      5 C5           0.0010     0.0010     2.3980 ca         1 1NV       0.179400
      6 C6          -0.6920     0.0060     1.2000 ca         1 1NV      -0.223300
      7 C7          -2.1980     0.0120     1.2000 c3         1 1NV       0.203100
      8 N8          -3.2340    -3.1070    -0.3960 nc         1 1NV      -0.604100
      9 C9          -2.8030    -1.8960    -0.1780 cd         1 1NV       0.518100
     10 N10         -2.6930    -1.3580     1.0480 na         1 1NV      -0.178000
     11 C11         -3.0440    -2.0880     2.1690 ca         1 1NV       0.056600
     12 C12         -3.5150    -3.4020     1.9890 ca         1 1NV      -0.224600
     13 C13         -3.8770    -4.1710     3.0920 ca         1 1NV      -0.031000
     14 C14         -3.7700    -3.6300     4.3610 ca         1 1NV       0.015100
     15 C15         -3.3030    -2.3300     4.5350 ca         1 1NV      -0.055000
     16 C16         -2.9430    -1.5620     3.4490 ca         1 1NV      -0.169000
     17 C17         -3.6050    -3.9200     0.6120 c          1 1NV       0.721100
     18 O18         -4.0060    -5.0490     0.3920 o          1 1NV      -0.558100
     19 F19         -4.4190    -5.4010     9.1150 f          1 1NV      -0.195967
     20 O20         -4.1200    -4.3740     5.4440 os         1 1NV      -0.178200
     21 C21         -3.2630    -5.3430     5.8580 ca         1 1NV       0.219100
     22 C22         -2.1150    -5.6140     5.1240 ca         1 1NV      -0.120000
     23 C23         -1.2390    -6.5990     5.5410 ca         1 1NV      -0.010000
     24 C24         -1.4980    -7.3200     6.6880 ca         1 1NV      -0.129000
     25 C25         -2.6500    -7.0550     7.4320 ca         1 1NV      -0.143600
     26 C26         -3.5300    -6.0570     7.0140 ca         1 1NV      -0.160300
     27 C27         -4.7750    -5.7650     7.8110 c3         1 1NV       0.659200
     28 F28          3.4280    -0.0020     1.1980 f          1 1NV      -0.108900
     29 F29         -5.5830    -6.9060     7.8510 f          1 1NV      -0.195967
     30 F30         -5.4780    -4.7150     7.2110 f          1 1NV      -0.195967
     31 F31         -0.6760     0.0000    -1.1690 f          1 1NV      -0.115400
     32 F32         -0.6750    -0.0000     3.5690 f          1 1NV      -0.115400
     33 C33         -2.9320    -7.8260     8.6620 c          1 1NV       0.344700
     34 O34         -3.9650    -7.6390     9.2730 o          1 1NV      -0.401100
     35 N35         -2.0410    -8.7350     9.1070 nz         1 1NV       0.204600
     36 H1           1.9250    -0.0050    -0.9380 ha         1 1NV       0.147000
     37 H2           1.9280    -0.0120     3.3360 ha         1 1NV       0.147000
     38 H3          -2.5570     0.4240     2.1350 h1         1 1NV       0.057700
     39 H4          -2.5570     0.6190     0.3770 h1         1 1NV       0.057700
     40 H5          -2.5200    -1.2910    -1.0310 h5         1 1NV       0.026800
     41 H6          -4.6630    -4.8870     2.8840 ha         1 1NV       0.152000
     42 H7          -3.4070    -1.8410     5.4960 ha         1 1NV       0.124000
     43 H8          -3.3770    -0.6210     3.7680 ha         1 1NV       0.146000
     44 H9          -1.9050    -5.0510     4.2230 ha         1 1NV       0.156000
     45 H10         -0.3450    -6.8050     4.9640 ha         1 1NV       0.129000
     46 H11         -0.8100    -8.0930     7.0100 ha         1 1NV       0.089000
     47 H12         -1.9320    -9.4570     8.4230 hn         1 1NV       0.248467
     48 H13         -2.3700    -9.1330     9.9640 hn         1 1NV       0.248467
     49 H353        -1.1590    -8.2890     9.2640 hn         1 1NV       0.248467
@<TRIPOS>BOND
     1     1     2 ar  
     2     1     6 ar  
     3     1    31 1   
     4     2     3 ar  
     5     2    36 1   
     6     3     4 ar  
     7     3    28 1   
     8     4     5 ar  
     9     4    37 1   
    10     5     6 ar  
    11     5    32 1   
    12     6     7 1   
    13     7    10 1   
    14     7    38 1   
    15     7    39 1   
    16     8     9 2   
    17     8    17 1   
    18     9    10 1   
    19     9    40 1   
    20    10    11 1   
    21    11    12 ar  
    22    11    16 ar  
    23    12    13 ar  
    24    12    17 1   
    25    13    14 ar  
    26    13    41 1   
    27    14    15 ar  
    28    14    20 1   
    29    15    16 ar  
    30    15    42 1   
    31    16    43 1   
    32    17    18 2   
    33    19    27 1   
    34    20    21 1   
    35    21    22 ar  
    36    21    26 ar  
    37    22    23 ar  
    38    22    44 1   
    39    23    24 ar  
    40    23    45 1   
    41    24    25 ar  
    42    24    46 1   
    43    25    26 ar  
    44    25    33 1   
    45    26    27 1   
    46    27    29 1   
    47    27    30 1   
    48    33    34 2   
    49    33    35 1   
    50    35    47 1   
    51    35    48 1   
    52    35    49 1   
@<TRIPOS>SUBSTRUCTURE
     1 1NV         1 TEMP              0 ****  ****    0 ROOT
