@<TRIPOS>MOLECULE
1NV
   49    52     1     0     0
SMALL
bcc


@<TRIPOS>ATOM
      1 C1          -0.1840    -0.0040    -0.6170 ca         1 1NV       0.193400
      2 C2           1.1360     0.3250    -0.9560 ca         1 1NV      -0.216000
      3 C3           1.9980     0.8070     0.0430 ca         1 1NV       0.203900
      4 C4           1.5470     0.9660     1.3650 ca         1 1NV      -0.216000
      5 C5           0.2240     0.6240     1.6820 ca         1 1NV       0.193400
      6 C6          -0.6630     0.1220     0.7060 ca         1 1NV      -0.223300
      7 C7          -2.0890    -0.1990     1.0420 c3         1 1NV       0.269100
      8 N8          -3.5210    -3.2410    -0.5220 nc         1 1NV      -0.654100
      9 C9          -3.0920    -2.0390    -0.2620 cd         1 1NV       0.680100
     10 N10         -2.4660    -1.5930     0.9140 na         1 1NV      -0.635000
     11 C11         -2.2230    -2.5360     1.9190 ca         1 1NV       0.207600
     12 C12         -2.6530    -3.8790     1.7120 ca         1 1NV      -0.218600
     13 C13         -2.4240    -4.8550     2.6830 ca         1 1NV      -0.053000
     14 C14         -1.8000    -4.4970     3.8740 ca         1 1NV      -0.006900
     15 C15         -1.3770    -3.1800     4.1140 ca         1 1NV      -0.052000
     16 C16         -1.5810    -2.2130     3.1430 ca         1 1NV      -0.176000
     17 C17         -3.3500    -4.2580     0.4500 c          1 1NV       0.703100
     18 O18         -3.7670    -5.4110     0.2670 o          1 1NV      -0.524100
     19 F19          0.3050    -6.5090     6.0820 f          1 1NV      -0.226967
     20 O20         -1.4240    -5.4710     4.8130 os         1 1NV      -0.217200
     21 C21         -2.4370    -6.1560     5.4410 ca         1 1NV       0.199100
     22 C22         -3.8030    -5.8110     5.3340 ca         1 1NV      -0.129000
     23 C23         -4.7520    -6.5480     6.0170 ca         1 1NV      -0.062000
     24 C24         -4.3680    -7.6470     6.8000 ca         1 1NV      -0.087000
     25 C25         -3.0210    -8.0020     6.8930 ca         1 1NV      -0.130600
     26 C26         -2.0300    -7.2450     6.2340 ca         1 1NV      -0.199300
     27 C27         -0.5400    -7.5370     6.3720 c3         1 1NV       0.693200
     28 F28          3.2720     1.1250    -0.2700 f          1 1NV      -0.110900
     29 F29         -0.1180    -8.5880     5.5810 f          1 1NV      -0.226967
     30 F30         -0.1640    -7.9490     7.6350 f          1 1NV      -0.226967
     31 F31         -1.0170    -0.4420    -1.5890 f          1 1NV      -0.129900
     32 F32         -0.2000     0.7950     2.9570 f          1 1NV      -0.129900
     33 C33         -2.7370    -9.1740     7.7370 c          1 1NV       0.574700
     34 O34         -3.1830    -9.4540     8.8360 o          1 1NV      -0.384100
     35 N35         -1.8270   -10.2280     7.1340 nz         1 1NV      -0.767400
     36 H1           1.4890     0.2130    -1.9930 ha         1 1NV       0.182500
     37 H2           2.2220     1.3590     2.1410 ha         1 1NV       0.182500
     38 H3          -2.3140     0.1370     2.0970 h1         1 1NV       0.085200
     39 H4          -2.7500     0.3990     0.3450 h1         1 1NV       0.085200
     40 H5          -3.2270    -1.2610    -1.0510 h5         1 1NV       0.076800
     41 H6          -2.7430    -5.8920     2.4840 ha         1 1NV       0.172000
     42 H7          -0.8700    -2.9280     5.0580 ha         1 1NV       0.164000
     43 H8          -1.2220    -1.1890     3.3340 ha         1 1NV       0.165000
     44 H9          -4.0960    -4.9500     4.7070 ha         1 1NV       0.189000
     45 H10         -5.8210    -6.2770     5.9520 ha         1 1NV       0.180000
     46 H11         -5.1350    -8.2230     7.3460 ha         1 1NV       0.173000
     47 H12         -2.0770   -11.1590     7.4860 hn         1 1NV       0.475800
     48 H13         -0.8510   -10.0250     7.4030 hn         1 1NV       0.475800
     49 H353        -1.8850   -10.2110     6.1100 hn         1 1NV       0.475800
@<TRIPOS>BOND
     1     1     2 ar  
     2     1     6 ar  
     3     1    31 1   
     4     2     3 ar  
     5     2    36 1   
     6     3     4 ar  
     7     3    28 1   
     8     4     5 ar  
     9     4    37 1   
    10     5     6 ar  
    11     5    32 1   
    12     6     7 1   
    13     7    10 1   
    14     7    38 1   
    15     7    39 1   
    16     8     9 2   
    17     8    17 1   
    18     9    10 1   
    19     9    40 1   
    20    10    11 1   
    21    11    12 ar  
    22    11    16 ar  
    23    12    13 ar  
    24    12    17 1   
    25    13    14 ar  
    26    13    41 1   
    27    14    15 ar  
    28    14    20 1   
    29    15    16 ar  
    30    15    42 1   
    31    16    43 1   
    32    17    18 2   
    33    19    27 1   
    34    20    21 1   
    35    21    22 ar  
    36    21    26 ar  
    37    22    23 ar  
    38    22    44 1   
    39    23    24 ar  
    40    23    45 1   
    41    24    25 ar  
    42    24    46 1   
    43    25    26 ar  
    44    25    33 1   
    45    26    27 1   
    46    27    29 1   
    47    27    30 1   
    48    33    34 2   
    49    33    35 1   
    50    35    47 1   
    51    35    48 1   
    52    35    49 1   
@<TRIPOS>SUBSTRUCTURE
     1 1NV         1 TEMP              0 ****  ****    0 ROOT
