@<TRIPOS>MOLECULE
1NW
   57    61     1     0     0
SMALL
bcc


@<TRIPOS>ATOM
      1 C1          -0.3210    -0.5880    -0.8840 ca         1 1NW       0.192900
      2 C2           1.0220    -0.4550    -1.2690 ca         1 1NW      -0.218000
      3 C3           1.9310     0.1390    -0.3790 ca         1 1NW       0.196900
      4 C4           1.5070     0.6060     0.8760 ca         1 1NW      -0.218000
      5 C5           0.1600     0.4580     1.2420 ca         1 1NW       0.192900
      6 C6          -0.7760    -0.1530     0.3800 ca         1 1NW      -0.213300
      7 C7          -2.2210    -0.2840     0.7680 c3         1 1NW       0.272100
      8 N8          -3.9440    -3.4140    -0.2070 nc         1 1NW      -0.668100
      9 C9          -3.4090    -2.2280    -0.1730 cd         1 1NW       0.676100
     10 N10         -2.7160    -1.6360     0.8930 na         1 1NW      -0.641000
     11 C11         -2.5250    -2.4050     2.0530 ca         1 1NW       0.187600
     12 C12         -3.0730    -3.7190     2.0980 ca         1 1NW      -0.212600
     13 C13         -2.9050    -4.5170     3.2320 ca         1 1NW      -0.053000
     14 C14         -2.2120    -4.0110     4.3300 ca         1 1NW       0.033100
     15 C15         -1.6710    -2.7160     4.3110 ca         1 1NW      -0.062000
     16 C16         -1.8190    -1.9250     3.1820 ca         1 1NW      -0.182000
     17 C17         -3.8290    -4.2540     0.9320 c          1 1NW       0.701100
     18 O18         -4.3430    -5.3820     0.9490 o          1 1NW      -0.523100
     19 F19         -0.1990    -5.5540     6.9150 f          1 1NW      -0.229300
     20 O20         -1.8950    -4.8220     5.4230 os         1 1NW      -0.230200
     21 C21         -2.9340    -5.1590     6.2760 ca         1 1NW       0.164100
     22 C22         -4.2620    -4.7540     6.0840 ca         1 1NW      -0.181000
     23 C23         -5.2340    -5.1510     6.9950 ca         1 1NW      -0.069000
     24 C24         -4.8930    -5.9530     8.0840 ca         1 1NW      -0.124000
     25 C25         -3.5700    -6.3630     8.2710 ca         1 1NW      -0.067600
     26 C26         -2.5690    -5.9600     7.3780 ca         1 1NW      -0.178300
     27 C27         -1.1050    -6.3530     7.5620 c3         1 1NW       0.696200
     28 F28          3.2270     0.2700    -0.7370 f          1 1NW      -0.117900
     29 F29         -0.8170    -7.6230     7.1120 f          1 1NW      -0.229300
     30 F30         -0.6670    -6.3510     8.8630 f          1 1NW      -0.229300
     31 F31         -1.1960    -1.1350    -1.7590 f          1 1NW      -0.128400
     32 F32         -0.2360     0.9280     2.4490 f          1 1NW      -0.128400
     33 C33         -3.3140    -7.2190     9.4800 c          1 1NW       0.675700
     34 O34         -3.6560    -6.8270    10.6090 o          1 1NW      -0.568100
     35 N35         -2.7570    -8.4620     9.2280 ns         1 1NW      -0.455100
     36 C36         -2.4600    -9.4540    10.1740 ca         1 1NW      -0.047700
     37 C37         -1.8320   -10.6590     9.7250 ca         1 1NW       0.353200
     38 N38         -1.5200   -11.6790    10.5340 nb         1 1NW      -0.642000
     39 C39         -1.8130   -11.5580    11.8450 ca         1 1NW       0.364200
     40 C40         -2.4240   -10.4180    12.3880 ca         1 1NW      -0.220300
     41 C41         -2.7520    -9.3530    11.5500 ca         1 1NW      -0.121000
     42 H1           1.3550    -0.8120    -2.2550 ha         1 1NW       0.178500
     43 H2           2.2200     1.0820     1.5650 ha         1 1NW       0.178500
     44 H3          -2.3970     0.2540     1.7460 h1         1 1NW       0.080700
     45 H4          -2.8360     0.2380    -0.0250 h1         1 1NW       0.080700
     46 H5          -3.5010    -1.5940    -1.0860 h5         1 1NW       0.062800
     47 H6          -3.3230    -5.5390     3.2400 ha         1 1NW       0.179000
     48 H7          -1.1150    -2.3450     5.1860 ha         1 1NW       0.162000
     49 H8          -1.3700    -0.9200     3.1790 ha         1 1NW       0.152000
     50 H9          -4.5280    -4.1270     5.2190 ha         1 1NW       0.160000
     51 H10         -6.2790    -4.8320     6.8550 ha         1 1NW       0.151000
     52 H11         -5.6600    -6.2590     8.8130 ha         1 1NW       0.163000
     53 H12         -2.4560    -8.6520     8.2950 hn         1 1NW       0.331500
     54 H13         -1.5680   -10.8030     8.6610 h4         1 1NW       0.023100
     55 H14         -1.5400   -12.4190    12.4790 h4         1 1NW       0.024100
     56 H15         -2.6410   -10.3620    13.4630 ha         1 1NW       0.146000
     57 H16         -3.2280    -8.4510    11.9690 ha         1 1NW       0.177000
@<TRIPOS>BOND
     1     1     2 ar  
     2     1     6 ar  
     3     1    31 1   
     4     2     3 ar  
     5     2    42 1   
     6     3     4 ar  
     7     3    28 1   
     8     4     5 ar  
     9     4    43 1   
    10     5     6 ar  
    11     5    32 1   
    12     6     7 1   
    13     7    10 1   
    14     7    44 1   
    15     7    45 1   
    16     8     9 2   
    17     8    17 1   
    18     9    10 1   
    19     9    46 1   
    20    10    11 1   
    21    11    12 ar  
    22    11    16 ar  
    23    12    13 ar  
    24    12    17 1   
    25    13    14 ar  
    26    13    47 1   
    27    14    15 ar  
    28    14    20 1   
    29    15    16 ar  
    30    15    48 1   
    31    16    49 1   
    32    17    18 2   
    33    19    27 1   
    34    20    21 1   
    35    21    22 ar  
    36    21    26 ar  
    37    22    23 ar  
    38    22    50 1   
    39    23    24 ar  
    40    23    51 1   
    41    24    25 ar  
    42    24    52 1   
    43    25    26 ar  
    44    25    33 1   
    45    26    27 1   
    46    27    29 1   
    47    27    30 1   
    48    33    34 2   
    49    33    35 1   
    50    35    36 1   
    51    35    53 1   
    52    36    37 ar  
    53    36    41 ar  
    54    37    38 ar  
    55    37    54 1   
    56    38    39 ar  
    57    39    40 ar  
    58    39    55 1   
    59    40    41 ar  
    60    40    56 1   
    61    41    57 1   
@<TRIPOS>SUBSTRUCTURE
     1 1NW         1 TEMP              0 ****  ****    0 ROOT
