@<TRIPOS>MOLECULE
1NW
   57    61     1     0     0
SMALL
bcc


@<TRIPOS>ATOM
      1 C1           0.0000     0.0000     0.0000 ca         1 1NW       0.177400
      2 C2           1.3840     0.0000     0.0000 ca         1 1NW      -0.174500
      3 C3           2.0770     0.0000     1.1980 ca         1 1NW       0.177900
      4 C4           1.3850     0.0010     2.3980 ca         1 1NW      -0.174500
      5 C5           0.0000     0.0010     2.3980 ca         1 1NW       0.177400
      6 C6          -0.6920     0.0060     1.2000 ca         1 1NW      -0.217300
      7 C7          -2.1990     0.0120     1.2000 c3         1 1NW       0.199100
      8 N8          -3.2310    -3.0960    -0.4200 nc         1 1NW      -0.622100
      9 C9          -2.8010    -1.8860    -0.1930 cd         1 1NW       0.516100
     10 N10         -2.6930    -1.3570     1.0380 na         1 1NW      -0.186000
     11 C11         -3.0450    -2.0950     2.1520 ca         1 1NW       0.012600
     12 C12         -3.5160    -3.4080     1.9620 ca         1 1NW      -0.209600
     13 C13         -3.8820    -4.1830     3.0580 ca         1 1NW      -0.022000
     14 C14         -3.7780    -3.6530     4.3320 ca         1 1NW       0.054100
     15 C15         -3.3120    -2.3540     4.5160 ca         1 1NW      -0.042000
     16 C16         -2.9470    -1.5780     3.4350 ca         1 1NW      -0.168000
     17 C17         -3.6050    -3.9150     0.5800 c          1 1NW       0.723100
     18 O18         -4.0050    -5.0430     0.3510 o          1 1NW      -0.565100
     19 F19         -4.4860    -5.4870     9.0730 f          1 1NW      -0.205300
     20 O20         -4.1320    -4.4030     5.4080 os         1 1NW      -0.192200
     21 C21         -3.2660    -5.3600     5.8320 ca         1 1NW       0.191100
     22 C22         -2.1010    -5.6060     5.1200 ca         1 1NW      -0.188000
     23 C23         -1.2160    -6.5790     5.5450 ca         1 1NW      -0.029000
     24 C24         -1.4860    -7.3120     6.6840 ca         1 1NW      -0.133000
     25 C25         -2.6550    -7.0720     7.4080 ca         1 1NW      -0.062600
     26 C26         -3.5440    -6.0860     6.9780 ca         1 1NW      -0.185300
     27 C27         -4.8090    -5.8210     7.7530 c3         1 1NW       0.671200
     28 F28          3.4270     0.0000     1.1980 f          1 1NW      -0.110900
     29 F29         -5.6100    -6.9670     7.7450 f          1 1NW      -0.205300
     30 F30         -5.5050    -4.7610     7.1620 f          1 1NW      -0.205300
     31 F31         -0.6750    -0.0010    -1.1690 f          1 1NW      -0.113900
     32 F32         -0.6750     0.0010     3.5680 f          1 1NW      -0.113900
     33 C33         -2.9480    -7.8560     8.6260 c          1 1NW       0.572700
     34 O34         -4.0020    -7.6990     9.2110 o          1 1NW      -0.619100
     35 N35         -2.0450    -8.7430     9.0890 ns         1 1NW      -0.014100
     36 C36         -2.3660    -9.5650    10.1740 ca         1 1NW      -0.219700
     37 C37         -1.8550   -10.8540    10.2570 ca         1 1NW       0.378200
     38 N38         -2.1550   -11.6310    11.2780 nb         1 1NW      -0.567000
     39 C39         -2.9440   -11.2240    12.2540 ca         1 1NW       0.390200
     40 C40         -3.4900    -9.9530    12.2420 ca         1 1NW      -0.200300
     41 C41         -3.1970    -9.1010    11.1910 ca         1 1NW      -0.072000
     42 H1           1.9250    -0.0030    -0.9380 ha         1 1NW       0.145500
     43 H2           1.9270    -0.0010     3.3370 ha         1 1NW       0.145500
     44 H3          -2.5570     0.6250     0.3810 h1         1 1NW       0.055700
     45 H4          -2.5580     0.4170     2.1380 h1         1 1NW       0.055700
     46 H5          -2.5150    -1.2760    -1.0410 h5         1 1NW       0.016800
     47 H6          -4.2450    -5.1940     2.9160 ha         1 1NW       0.143000
     48 H7          -3.2340    -1.9490     5.5170 ha         1 1NW       0.121000
     49 H8          -2.5850    -0.5680     3.5880 ha         1 1NW       0.138000
     50 H9          -1.8840    -5.0340     4.2260 ha         1 1NW       0.134000
     51 H10         -0.3080    -6.7660     4.9850 ha         1 1NW       0.109000
     52 H11         -0.7910    -8.0750     7.0140 ha         1 1NW       0.111000
     53 H12         -1.1310    -8.7830     8.6840 hn         1 1NW       0.172500
     54 H13         -1.2040   -11.2240     9.4740 h4         1 1NW      -0.021900
     55 H14         -3.1680   -11.8950    13.0740 h4         1 1NW      -0.019900
     56 H15         -4.1340    -9.6270    13.0490 ha         1 1NW       0.116000
     57 H16         -3.6100    -8.1010    11.1560 ha         1 1NW       0.156000
@<TRIPOS>BOND
     1     1     2 ar  
     2     1     6 ar  
     3     1    31 1   
     4     2     3 ar  
     5     2    42 1   
     6     3     4 ar  
     7     3    28 1   
     8     4     5 ar  
     9     4    43 1   
    10     5     6 ar  
    11     5    32 1   
    12     6     7 1   
    13     7    10 1   
    14     7    44 1   
    15     7    45 1   
    16     8     9 2   
    17     8    17 1   
    18     9    10 1   
    19     9    46 1   
    20    10    11 1   
    21    11    12 ar  
    22    11    16 ar  
    23    12    13 ar  
    24    12    17 1   
    25    13    14 ar  
    26    13    47 1   
    27    14    15 ar  
    28    14    20 1   
    29    15    16 ar  
    30    15    48 1   
    31    16    49 1   
    32    17    18 2   
    33    19    27 1   
    34    20    21 1   
    35    21    22 ar  
    36    21    26 ar  
    37    22    23 ar  
    38    22    50 1   
    39    23    24 ar  
    40    23    51 1   
    41    24    25 ar  
    42    24    52 1   
    43    25    26 ar  
    44    25    33 1   
    45    26    27 1   
    46    27    29 1   
    47    27    30 1   
    48    33    34 2   
    49    33    35 1   
    50    35    36 1   
    51    35    53 1   
    52    36    37 ar  
    53    36    41 ar  
    54    37    38 ar  
    55    37    54 1   
    56    38    39 ar  
    57    39    40 ar  
    58    39    55 1   
    59    40    41 ar  
    60    40    56 1   
    61    41    57 1   
@<TRIPOS>SUBSTRUCTURE
     1 1NW         1 TEMP              0 ****  ****    0 ROOT
