@<TRIPOS>MOLECULE
1NX
   58    62     1     0     0
SMALL
bcc


@<TRIPOS>ATOM
      1 C1           3.6700    -0.5570    -1.8660 c3         1 1NX      -0.124100
      2 C2           4.2370     0.2700    -0.7220 c3         1 1NX       0.169500
      3 N4           3.4510     0.0580     0.5580 ny         1 1NX      -0.664800
      4 C5           3.7950    -1.2150     1.2930 c          1 1NX       0.601300
      5 O6           4.6670    -1.9310     0.8100 o          1 1NX      -0.446100
      6 C7           3.0560    -1.4410     2.5010 cc         1 1NX      -0.420000
      7 C8           3.2620    -2.5580     3.3530 cd         1 1NX       0.082900
      8 N9           2.4240    -2.5050     4.4360 na         1 1NX      -0.224100
      9 C10          1.6310    -1.3420     4.3360 ca         1 1NX       0.301500
     10 N11          0.6660    -0.8770     5.1830 nb         1 1NX      -0.556000
     11 C12          0.1040     0.2710     4.7980 ca         1 1NX       0.291900
     12 C13          0.4800     0.9610     3.5880 ca         1 1NX       0.509300
     13 N14          1.4200     0.5160     2.7250 nb         1 1NX      -0.658000
     14 C15          2.0110    -0.6420     3.1060 ca         1 1NX       0.349800
     15 O16         -0.0360     2.2220     3.2960 os         1 1NX      -0.341400
     16 C17         -1.4230     2.3550     3.3800 ca         1 1NX       0.097100
     17 C18         -1.8600     3.6760     3.6060 ca         1 1NX      -0.106000
     18 C19         -3.2280     3.8980     3.6020 ca         1 1NX      -0.158300
     19 C20         -3.9480     5.2120     3.7420 c3         1 1NX       0.183800
     20 N22         -3.6870     5.8380     5.0910 ny         1 1NX      -0.690800
     21 C23         -3.9490     7.3380     5.0830 c          1 1NX       0.555100
     22 C24         -5.1350     7.7940     5.8580 c3         1 1NX      -0.189100
     23 O25         -3.1450     8.0020     4.4500 o          1 1NX      -0.396100
     24 C26         -5.4450     4.8730     3.5070 c3         1 1NX      -0.097400
     25 C27         -5.5510     3.3490     3.3700 c3         1 1NX      -0.048100
     26 C28         -4.1470     2.8490     3.3800 ca         1 1NX      -0.059300
     27 C29         -3.6960     1.5530     3.1680 ca         1 1NX      -0.074000
     28 C30         -2.3200     1.3040     3.1670 ca         1 1NX      -0.135000
     29 C31          4.2360     1.7370    -1.0680 cx         1 1NX      -0.208700
     30 C32          4.9980     2.7110    -0.2020 cx         1 1NX      -0.104900
     31 C33          5.5220     2.3580    -1.5570 cx         1 1NX      -0.104900
     32 H11C         2.6120    -0.2800    -2.0940 hc         1 1NX       0.078033
     33 H12C         3.7300    -1.6490    -1.6380 hc         1 1NX       0.078033
     34 H13C         4.2880    -0.3530    -2.7780 hc         1 1NX       0.078033
     35 H2           5.2950    -0.0770    -0.5040 hx         1 1NX       0.120700
     36 H4           2.4500     0.0450     0.3350 hn         1 1NX       0.465300
     37 H31          3.2880     2.0720    -1.5360 hc         1 1NX       0.106700
     38 H8           3.9810    -3.3810     3.2110 h4         1 1NX       0.226000
     39 H9           2.3730    -3.1610     5.1840 hn         1 1NX       0.354700
     40 H12         -0.6780     0.6880     5.4580 h4         1 1NX       0.063100
     41 H18         -1.1240     4.4820     3.7410 ha         1 1NX       0.164000
     42 H30         -1.9480     0.2830     2.9870 ha         1 1NX       0.162000
     43 H20         -3.5770     5.9540     2.9720 hx         1 1NX       0.130700
     44 H22         -4.2740     5.3860     5.7970 hn         1 1NX       0.457300
     45 H261        -5.7730     5.3700     2.5570 hc         1 1NX       0.082200
     46 H262        -6.1070     5.2430     4.3280 hc         1 1NX       0.082200
     47 H241        -5.2610     8.9000     5.7010 hc         1 1NX       0.119033
     48 H242        -4.9860     7.6060     6.9530 hc         1 1NX       0.119033
     49 H243        -6.0670     7.2740     5.5180 hc         1 1NX       0.119033
     50 H271        -6.1430     2.9050     4.2120 hc         1 1NX       0.093700
     51 H272        -6.0690     3.0740     2.4140 hc         1 1NX       0.093700
     52 H29         -4.4080     0.7310     2.9900 ha         1 1NX       0.174000
     53 H321         5.5360     2.3390     0.6900 hc         1 1NX       0.093450
     54 H322         4.5680     3.7150    -0.0330 hc         1 1NX       0.093450
     55 H331         5.4630     3.1020    -2.3740 hc         1 1NX       0.093450
     56 H332         6.4290     1.7300    -1.6400 hc         1 1NX       0.093450
     57 H42          3.6270     0.8550     1.1840 hn         1 1NX       0.465300
     58 H222        -2.7010     5.6730     5.3280 hn         1 1NX       0.457300
@<TRIPOS>BOND
     1     1     2 1   
     2     1    32 1   
     3     1    33 1   
     4     1    34 1   
     5     2     3 1   
     6     2    29 1   
     7     2    35 1   
     8     3     4 1   
     9     3    36 1   
    10     3    57 1   
    11     4     5 2   
    12     4     6 1   
    13     6     7 2   
    14     6    14 1   
    15     7     8 1   
    16     7    38 1   
    17     8     9 1   
    18     8    39 1   
    19     9    10 ar  
    20     9    14 ar  
    21    10    11 ar  
    22    11    12 ar  
    23    11    40 1   
    24    12    13 ar  
    25    12    15 1   
    26    13    14 ar  
    27    15    16 1   
    28    16    17 ar  
    29    16    28 ar  
    30    17    18 ar  
    31    17    41 1   
    32    18    19 1   
    33    18    26 ar  
    34    19    20 1   
    35    19    24 1   
    36    19    43 1   
    37    20    21 1   
    38    20    44 1   
    39    20    58 1   
    40    21    22 1   
    41    21    23 2   
    42    22    47 1   
    43    22    48 1   
    44    22    49 1   
    45    24    25 1   
    46    24    45 1   
    47    24    46 1   
    48    25    26 1   
    49    25    50 1   
    50    25    51 1   
    51    26    27 ar  
    52    27    28 ar  
    53    27    52 1   
    54    28    42 1   
    55    29    30 1   
    56    29    31 1   
    57    29    37 1   
    58    30    31 1   
    59    30    53 1   
    60    30    54 1   
    61    31    55 1   
    62    31    56 1   
@<TRIPOS>SUBSTRUCTURE
     1 1NX         1 TEMP              0 ****  ****    0 ROOT
