@<TRIPOS>MOLECULE
1NX
   56    60     1     0     0
SMALL
bcc


@<TRIPOS>ATOM
      1 C1           0.0000     0.0000     0.0000 c3         1 1NX      -0.031100
      2 C2           1.5290     0.0000     0.0000 c3         1 1NX       0.066700
      3 N4           2.0180     0.0000     1.3820 ns         1 1NX      -0.203900
      4 C5           2.1460    -1.1630     2.0520 c          1 1NX       0.629300
      5 O6           1.8570    -2.2120     1.5080 o          1 1NX      -0.636100
      6 C7           2.6360    -1.1620     3.4360 cc         1 1NX      -0.337000
      7 C8           2.9980    -0.0730     4.1750 cd         1 1NX      -0.235100
      8 N9           3.3960    -0.4660     5.4080 na         1 1NX       0.300900
      9 C10          3.3110    -1.8360     5.5260 ca         1 1NX       0.058500
     10 N11          3.5820    -2.6790     6.5160 nb         1 1NX      -0.512000
     11 C12          3.4010    -3.9740     6.3470 ca         1 1NX       0.279900
     12 C13          2.9280    -4.4710     5.1350 ca         1 1NX       0.483300
     13 N14          2.6530    -3.6430     4.1380 nb         1 1NX      -0.542000
     14 C15          2.8270    -2.3360     4.3050 ca         1 1NX       0.354800
     15 O16          2.7460    -5.8060     4.9740 os         1 1NX      -0.334400
     16 C17          2.1890    -6.2400     3.8120 ca         1 1NX       0.102100
     17 C18          2.9480    -6.2900     2.6530 ca         1 1NX      -0.059000
     18 C19          2.3810    -6.7320     1.4710 ca         1 1NX      -0.100300
     19 C20          2.9850    -6.8790     0.0890 c3         1 1NX       0.085000
     20 N22          3.7950    -5.7030    -0.2390 ns         1 1NX      -0.184900
     21 C23          5.0880    -5.6500     0.1390 c          1 1NX       0.573100
     22 C24          5.9220    -4.4400    -0.1980 c3         1 1NX      -0.069100
     23 O25          5.5800    -6.5740     0.7500 o          1 1NX      -0.658100
     24 C26          1.7800    -6.9820    -0.8690 c3         1 1NX      -0.039400
     25 C27          0.6780    -7.5600     0.0440 c3         1 1NX       0.044900
     26 C28          1.0540    -7.1230     1.4440 ca         1 1NX      -0.099300
     27 C29          0.2970    -7.0740     2.6030 ca         1 1NX      -0.076000
     28 C30          0.8600    -6.6380     3.7860 ca         1 1NX      -0.102000
     29 C31          2.0400     1.2490    -0.7210 cx         1 1NX      -0.139700
     30 C32          1.6360     1.4330    -2.1850 cx         1 1NX      -0.082400
     31 C33          1.0100     2.3150    -1.1030 cx         1 1NX      -0.082400
     32 H11C        -0.3610     0.8520     0.5640 hc         1 1NX       0.017367
     33 H12C        -0.3610     0.0620    -1.0190 hc         1 1NX       0.017367
     34 H13C        -0.3610    -0.9140     0.4560 hc         1 1NX       0.017367
     35 H2           1.8910    -0.8850    -0.5110 h1         1 1NX       0.055700
     36 H4           2.2860     0.8600     1.8170 hn         1 1NX       0.169500
     37 H31          3.0200     1.6350    -0.4700 hc         1 1NX       0.059700
     38 H8           2.9710     0.9530     3.8270 h4         1 1NX       0.142000
     39 H9           3.7090     0.1510     6.1310 hn         1 1NX       0.119700
     40 H12          3.6240    -4.6580     7.1580 h4         1 1NX       0.001100
     41 H18          3.9930    -6.0080     2.6780 ha         1 1NX       0.128000
     42 H30          0.2870    -6.6760     4.7040 ha         1 1NX       0.110000
     43 H20          3.5820    -7.7810     0.0370 h1         1 1NX       0.060700
     44 H22          3.4030    -4.9600    -0.7830 hn         1 1NX       0.180500
     45 H261         1.4950    -5.9970    -1.2160 hc         1 1NX       0.025200
     46 H262         2.0010    -7.6770    -1.6700 hc         1 1NX       0.025200
     47 H241         6.7550    -4.3730     0.4910 hc         1 1NX       0.021700
     48 H242         5.3130    -3.5480    -0.1180 hc         1 1NX       0.021700
     49 H243         6.2970    -4.5320    -1.2110 hc         1 1NX       0.021700
     50 H271         0.6880    -8.6420    -0.0130 hc         1 1NX       0.022700
     51 H272        -0.2790    -7.1310    -0.2250 hc         1 1NX       0.022700
     52 H29         -0.7410    -7.3840     2.5820 ha         1 1NX       0.101000
     53 H321         0.9910     0.6640    -2.5930 hc         1 1NX       0.050700
     54 H322         2.3710     1.9190    -2.8160 hc         1 1NX       0.050700
     55 H331        -0.0170     2.0840    -0.8480 hc         1 1NX       0.050700
     56 H332         1.3630     3.3380    -1.0710 hc         1 1NX       0.050700
@<TRIPOS>BOND
     1     1     2 1   
     2     1    32 1   
     3     1    33 1   
     4     1    34 1   
     5     2     3 1   
     6     2    29 1   
     7     2    35 1   
     8     3     4 1   
     9     3    36 1   
    10     4     5 2   
    11     4     6 1   
    12     6     7 2   
    13     6    14 1   
    14     7     8 1   
    15     7    38 1   
    16     8     9 1   
    17     8    39 1   
    18     9    10 ar  
    19     9    14 ar  
    20    10    11 ar  
    21    11    12 ar  
    22    11    40 1   
    23    12    13 ar  
    24    12    15 1   
    25    13    14 ar  
    26    15    16 1   
    27    16    17 ar  
    28    16    28 ar  
    29    17    18 ar  
    30    17    41 1   
    31    18    19 1   
    32    18    26 ar  
    33    19    20 1   
    34    19    24 1   
    35    19    43 1   
    36    20    21 1   
    37    20    44 1   
    38    21    22 1   
    39    21    23 2   
    40    22    47 1   
    41    22    48 1   
    42    22    49 1   
    43    24    25 1   
    44    24    45 1   
    45    24    46 1   
    46    25    26 1   
    47    25    50 1   
    48    25    51 1   
    49    26    27 ar  
    50    27    28 ar  
    51    27    52 1   
    52    28    42 1   
    53    29    30 1   
    54    29    31 1   
    55    29    37 1   
    56    30    31 1   
    57    30    53 1   
    58    30    54 1   
    59    31    55 1   
    60    31    56 1   
@<TRIPOS>SUBSTRUCTURE
     1 1NX         1 TEMP              0 ****  ****    0 ROOT
