@<TRIPOS>MOLECULE
molecule
   52    55     1     0     0
SMALL
bcc


@<TRIPOS>ATOM
      1 CAN          0.0000     0.0000     0.0000 ca         1 1NY      -0.169000
      2 CAP          1.3760     0.0000     0.0000 ca         1 1NY      -0.091000
      3 CBA          2.0730     0.0000     1.2130 ca         1 1NY      -0.109600
      4 CAU          3.5480    -0.0000     1.2180 c          1 1NY       0.883200
      5 OAE          4.1580     0.0000     0.1680 o          1 1NY      -0.838800
      6 OAC          4.2170     0.0000     2.3870 o          1 1NY      -0.838800
      7 CAQ          1.3680     0.0000     2.4200 ca         1 1NY      -0.091000
      8 CAO         -0.0080    -0.0010     2.4120 ca         1 1NY      -0.169000
      9 CAZ         -0.6980     0.0060     1.2030 ca         1 1NY       0.006600
     10 NAT         -2.0910     0.0070     1.1990 ns         1 1NY      -0.461100
     11 CAW         -2.7620     0.6820     0.2450 c          1 1NY       0.662700
     12 OAD         -2.1540     1.2210    -0.6590 o          1 1NY      -0.592100
     13 CAV         -4.2370     0.7680     0.2980 ca         1 1NY      -0.140600
     14 CAH         -4.9330     1.4680    -0.6880 ca         1 1NY      -0.051000
     15 CAX         -6.3180     1.5400    -0.6270 ca         1 1NY      -0.059800
     16 CAF         -4.9380     0.1440     1.3320 ca         1 1NY      -0.104000
     17 CAG         -6.3160     0.2210     1.3840 ca         1 1NY      -0.141000
     18 CBC         -7.0090     0.9160     0.4140 ca         1 1NY      -0.049300
     19 CBD         -8.5110     1.0030     0.4600 c3         1 1NY      -0.017700
     20 CAA         -9.1120    -0.1000    -0.4150 c3         1 1NY      -0.081600
     21 CAB         -8.9860     0.8210     1.9030 c3         1 1NY      -0.081600
     22 CAS         -8.9700     2.3650    -0.0560 c3         1 1NY      -0.032200
     23 CAR         -8.3390     2.6710    -1.3850 c2         1 1NY      -0.161200
     24 CAY         -7.0860     2.2800    -1.6590 ce         1 1NY      -0.011400
     25 CBB         -6.4720     2.5960    -2.9710 ca         1 1NY      -0.052800
     26 CAL         -6.1420     1.5710    -3.8560 ca         1 1NY      -0.111500
     27 CAJ         -5.5710     1.8720    -5.0750 ca         1 1NY      -0.128500
     28 CAI         -5.3250     3.1880    -5.4210 ca         1 1NY      -0.125000
     29 CAK         -5.6500     4.2110    -4.5470 ca         1 1NY      -0.128500
     30 CAM         -6.2280     3.9220    -3.3280 ca         1 1NY      -0.111500
     31 H1          -0.5400     0.0030    -0.9390 ha         1 1NY       0.122000
     32 H2           1.9190    -0.0050    -0.9380 ha         1 1NY       0.153000
     33 H4           1.9050    -0.0020     3.3620 ha         1 1NY       0.153000
     34 H5          -0.5550     0.0020     3.3470 ha         1 1NY       0.122000
     35 H6          -2.5940    -0.5220     1.8840 hn         1 1NY       0.310500
     36 H7          -4.3920     2.0560    -1.4190 ha         1 1NY       0.169000
     37 H8          -4.3990    -0.4030     2.0960 ha         1 1NY       0.129000
     38 H9          -6.8540    -0.2660     2.1890 ha         1 1NY       0.132000
     39 H10        -10.1860    -0.1250    -0.2780 hc         1 1NY       0.037367
     40 H11         -8.6890    -1.0560    -0.1310 hc         1 1NY       0.037367
     41 H12         -8.8850     0.1000    -1.4550 hc         1 1NY       0.037367
     42 H13        -10.0360     1.0800     1.9730 hc         1 1NY       0.037367
     43 H14         -8.4120     1.4670     2.5570 hc         1 1NY       0.037367
     44 H15         -8.8480    -0.2110     2.2020 hc         1 1NY       0.037367
     45 H16         -8.6850     3.1300     0.6570 hc         1 1NY       0.051700
     46 H17        -10.0480     2.3580    -0.1670 hc         1 1NY       0.051700
     47 H18         -8.9040     3.2160    -2.1320 ha         1 1NY       0.129000
     48 H21         -6.3340     0.5390    -3.5870 ha         1 1NY       0.134500
     49 H22         -5.3150     1.0750    -5.7630 ha         1 1NY       0.129000
     50 H23         -4.8740     3.4190    -6.3790 ha         1 1NY       0.127000
     51 H24         -5.4580     5.2400    -4.8240 ha         1 1NY       0.129000
     52 H25         -6.4810     4.7230    -2.6450 ha         1 1NY       0.134500
@<TRIPOS>BOND
     1    21    19 1
     2    22    19 1
     3    22    23 1
     4    20    19 1
     5    19    18 1
     6    23    24 2
     7    18    17 ar
     8    18    15 ar
     9    24    15 1
    10    24    25 1
    11    26    25 ar
    12    26    27 ar
    13    17    16 ar
    14    15    14 ar
    15    25    30 ar
    16    27    28 ar
    17    30    29 ar
    18    16    13 ar
    19    14    13 ar
    20    28    29 ar
    21    13    11 1
    22    11    10 1
    23    11    12 2
    24    10     9 1
    25     9     8 ar
    26     9     1 ar
    27     8     7 ar
    28     1     2 ar
    29     7     3 ar
    30     2     3 ar
    31     3     4 1
    32     4     5 1
    33     4     6 1
    34     1    31 1
    35     2    32 1
    36     7    33 1
    37     8    34 1
    38    10    35 1
    39    14    36 1
    40    16    37 1
    41    17    38 1
    42    20    39 1
    43    20    40 1
    44    20    41 1
    45    21    42 1
    46    21    43 1
    47    21    44 1
    48    22    45 1
    49    22    46 1
    50    23    47 1
    51    26    48 1
    52    27    49 1
    53    28    50 1
    54    29    51 1
    55    30    52 1
@<TRIPOS>SUBSTRUCTURE
     1 1NY         1 TEMP              0 ****  ****    0 ROOT
