@<TRIPOS>MOLECULE
1NY
   52    55     1     0     0
SMALL
bcc


@<TRIPOS>ATOM
      1 CAN          0.1590     0.6720     0.0010 ca         1 1NY      -0.186500
      2 CAP          1.5190     0.3640     0.0200 ca         1 1NY      -0.090500
      3 CBA          2.0680    -0.4320     1.0260 ca         1 1NY      -0.135600
      4 CAU          3.5540    -0.7570     1.0420 c          1 1NY       0.909200
      5 OAE          3.9880    -1.4850     1.9800 o          1 1NY      -0.831300
      6 OAC          4.2740    -0.2840     0.1180 o          1 1NY      -0.831300
      7 CAQ          1.2270    -0.9280     2.0260 ca         1 1NY      -0.090500
      8 CAO         -0.1310    -0.6390     2.0280 ca         1 1NY      -0.186500
      9 CAZ         -0.6860     0.1730     1.0090 ca         1 1NY       0.015600
     10 NAT         -2.0690     0.4600     1.0730 ns         1 1NY      -0.453100
     11 CAW         -2.8610     1.0290     0.1010 c          1 1NY       0.667700
     12 OAD         -2.4480     1.4340    -1.0040 o          1 1NY      -0.595100
     13 CAV         -4.3180     1.1430     0.4450 ca         1 1NY      -0.139600
     14 CAH         -5.2600     0.7780    -0.5180 ca         1 1NY      -0.070000
     15 CAX         -6.6310     0.8710    -0.2460 ca         1 1NY      -0.055800
     16 CAF         -4.7430     1.6270     1.6840 ca         1 1NY      -0.105000
     17 CAG         -6.1050     1.7400     1.9530 ca         1 1NY      -0.141000
     18 CBC         -7.0610     1.3750     1.0000 ca         1 1NY      -0.048300
     19 CBD         -8.5310     1.4830     1.3120 c3         1 1NY      -0.005700
     20 CAA         -8.9880     0.1820     1.9680 c3         1 1NY      -0.086100
     21 CAB         -8.8180     2.6410     2.2640 c3         1 1NY      -0.086100
     22 CAS         -9.3440     1.7240     0.0330 c3         1 1NY      -0.040200
     23 CAR         -8.9030     0.8930    -1.1080 c2         1 1NY      -0.157200
     24 CAY         -7.6250     0.4850    -1.2480 ce         1 1NY      -0.004400
     25 CBB         -7.2240    -0.3440    -2.3870 ca         1 1NY      -0.050800
     26 CAL         -7.6270     0.0040    -3.6840 ca         1 1NY      -0.117000
     27 CAJ         -7.2700    -0.7940    -4.7690 ca         1 1NY      -0.130500
     28 CAI         -6.5120    -1.9480    -4.5720 ca         1 1NY      -0.127000
     29 CAK         -6.1090    -2.3010    -3.2840 ca         1 1NY      -0.130500
     30 CAM         -6.4610    -1.5050    -2.1960 ca         1 1NY      -0.117000
     31 H1          -0.2450     1.3000    -0.8080 ha         1 1NY       0.125000
     32 H2           2.1890     0.7500    -0.7650 ha         1 1NY       0.154000
     33 H4           1.6720    -1.5580     2.8150 ha         1 1NY       0.154000
     34 H5          -0.7680    -1.0440     2.8280 ha         1 1NY       0.125000
     35 H6          -2.5310     0.1170     1.8870 hn         1 1NY       0.305500
     36 H7          -4.9110     0.4260    -1.5040 ha         1 1NY       0.164000
     37 H8          -4.0100     1.9360     2.4450 ha         1 1NY       0.142000
     38 H9          -6.4230     2.1250     2.9340 ha         1 1NY       0.132000
     39 H10         -8.8850    -0.6660     1.2510 hc         1 1NY       0.037533
     40 H11        -10.0570     0.2660     2.2780 hc         1 1NY       0.037533
     41 H12         -8.3670    -0.0320     2.8710 hc         1 1NY       0.037533
     42 H13         -8.4830     2.3940     3.3000 hc         1 1NY       0.037533
     43 H14         -9.9160     2.8430     2.2930 hc         1 1NY       0.037533
     44 H15         -8.2910     3.5640     1.9250 hc         1 1NY       0.037533
     45 H16        -10.4270     1.5250     0.2540 hc         1 1NY       0.051200
     46 H17         -9.2560     2.8070    -0.2600 hc         1 1NY       0.051200
     47 H18         -9.6700     0.6370    -1.8550 ha         1 1NY       0.127000
     48 H21         -8.2190     0.9170    -3.8420 ha         1 1NY       0.136500
     49 H22         -7.5830    -0.5080    -5.7840 ha         1 1NY       0.131500
     50 H23         -6.2260    -2.5730    -5.4300 ha         1 1NY       0.129000
     51 H24         -5.5050    -3.2070    -3.1260 ha         1 1NY       0.131500
     52 H25         -6.1350    -1.7820    -1.1820 ha         1 1NY       0.136500
@<TRIPOS>BOND
     1     1     2 ar  
     2     1     9 ar  
     3     1    31 1   
     4     2     3 ar  
     5     2    32 1   
     6     3     4 1   
     7     3     7 ar  
     8     4     5 1   
     9     4     6 1   
    10     7     8 ar  
    11     7    33 1   
    12     8     9 ar  
    13     8    34 1   
    14     9    10 1   
    15    10    11 1   
    16    10    35 1   
    17    11    12 2   
    18    11    13 1   
    19    13    14 ar  
    20    13    16 ar  
    21    14    15 ar  
    22    14    36 1   
    23    15    18 ar  
    24    15    24 1   
    25    16    17 ar  
    26    16    37 1   
    27    17    18 ar  
    28    17    38 1   
    29    18    19 1   
    30    19    20 1   
    31    19    21 1   
    32    19    22 1   
    33    20    39 1   
    34    20    40 1   
    35    20    41 1   
    36    21    42 1   
    37    21    43 1   
    38    21    44 1   
    39    22    23 1   
    40    22    45 1   
    41    22    46 1   
    42    23    24 2   
    43    23    47 1   
    44    24    25 1   
    45    25    26 ar  
    46    25    30 ar  
    47    26    27 ar  
    48    26    48 1   
    49    27    28 ar  
    50    27    49 1   
    51    28    29 ar  
    52    28    50 1   
    53    29    30 ar  
    54    29    51 1   
    55    30    52 1   
@<TRIPOS>SUBSTRUCTURE
     1 1NY         1 TEMP              0 ****  ****    0 ROOT
