@<TRIPOS>MOLECULE
1NY
   52    55     1     0     0
SMALL
bcc


@<TRIPOS>ATOM
      1 CAN          0.0000     0.0000     0.0000 ca         1 1NY      -0.146500
      2 CAP          1.3760     0.0000     0.0000 ca         1 1NY      -0.063500
      3 CBA          2.0730     0.0000     1.2130 ca         1 1NY      -0.102600
      4 CAU          3.5480    -0.0000     1.2180 c          1 1NY       0.974200
      5 OAE          4.1580     0.0000     0.1680 o          1 1NY      -0.885300
      6 OAC          4.2170     0.0000     2.3870 o          1 1NY      -0.885300
      7 CAQ          1.3680     0.0000     2.4200 ca         1 1NY      -0.063500
      8 CAO         -0.0080    -0.0010     2.4120 ca         1 1NY      -0.146500
      9 CAZ         -0.6980     0.0060     1.2030 ca         1 1NY      -0.149400
     10 NAT         -2.0910     0.0070     1.1990 ns         1 1NY      -0.008100
     11 CAW         -2.7620     0.6820     0.2450 c          1 1NY       0.564700
     12 OAD         -2.1540     1.2210    -0.6590 o          1 1NY      -0.638100
     13 CAV         -4.2370     0.7680     0.2980 ca         1 1NY      -0.147600
     14 CAH         -4.9330     1.4680    -0.6880 ca         1 1NY      -0.024000
     15 CAX         -6.3180     1.5400    -0.6270 ca         1 1NY      -0.055800
     16 CAF         -4.9380     0.1440     1.3320 ca         1 1NY      -0.085000
     17 CAG         -6.3160     0.2210     1.3840 ca         1 1NY      -0.120000
     18 CBC         -7.0090     0.9160     0.4140 ca         1 1NY      -0.058300
     19 CBD         -8.5110     1.0030     0.4600 c3         1 1NY      -0.007700
     20 CAA         -9.1120    -0.1000    -0.4150 c3         1 1NY       0.002900
     21 CAB         -8.9860     0.8210     1.9030 c3         1 1NY       0.002900
     22 CAS         -8.9700     2.3650    -0.0560 c3         1 1NY       0.030800
     23 CAR         -8.3390     2.6710    -1.3850 c2         1 1NY      -0.152200
     24 CAY         -7.0860     2.2800    -1.6590 ce         1 1NY      -0.000400
     25 CBB         -6.4720     2.5960    -2.9710 ca         1 1NY      -0.045800
     26 CAL         -6.1420     1.5710    -3.8560 ca         1 1NY      -0.087500
     27 CAJ         -5.5710     1.8720    -5.0750 ca         1 1NY      -0.100500
     28 CAI         -5.3250     3.1880    -5.4210 ca         1 1NY      -0.100000
     29 CAK         -5.6500     4.2110    -4.5470 ca         1 1NY      -0.100500
     30 CAM         -6.2280     3.9220    -3.3280 ca         1 1NY      -0.087500
     31 H1          -0.5400     0.0030    -0.9390 ha         1 1NY       0.105500
     32 H2           1.9190    -0.0050    -0.9380 ha         1 1NY       0.126000
     33 H4           1.9050    -0.0020     3.3620 ha         1 1NY       0.126000
     34 H5          -0.5550     0.0020     3.3470 ha         1 1NY       0.105500
     35 H6          -2.5940    -0.5220     1.8840 hn         1 1NY       0.156500
     36 H7          -4.3920     2.0560    -1.4190 ha         1 1NY       0.140000
     37 H8          -4.3990    -0.4030     2.0960 ha         1 1NY       0.105000
     38 H9          -6.8540    -0.2660     2.1890 ha         1 1NY       0.113000
     39 H10        -10.1860    -0.1250    -0.2780 hc         1 1NY       0.007700
     40 H11         -8.6890    -1.0560    -0.1310 hc         1 1NY       0.007700
     41 H12         -8.8850     0.1000    -1.4550 hc         1 1NY       0.007700
     42 H13        -10.0360     1.0800     1.9730 hc         1 1NY       0.007700
     43 H14         -8.4120     1.4670     2.5570 hc         1 1NY       0.007700
     44 H15         -8.8480    -0.2110     2.2020 hc         1 1NY       0.007700
     45 H16         -8.6850     3.1300     0.6570 hc         1 1NY       0.021200
     46 H17        -10.0480     2.3580    -0.1670 hc         1 1NY       0.021200
     47 H18         -8.9040     3.2160    -2.1320 ha         1 1NY       0.105000
     48 H21         -6.3340     0.5390    -3.5870 ha         1 1NY       0.107500
     49 H22         -5.3150     1.0750    -5.7630 ha         1 1NY       0.101000
     50 H23         -4.8740     3.4190    -6.3790 ha         1 1NY       0.099000
     51 H24         -5.4580     5.2400    -4.8240 ha         1 1NY       0.101000
     52 H25         -6.4810     4.7230    -2.6450 ha         1 1NY       0.107500
@<TRIPOS>BOND
     1     1     2 ar  
     2     1     9 ar  
     3     1    31 1   
     4     2     3 ar  
     5     2    32 1   
     6     3     4 1   
     7     3     7 ar  
     8     4     5 1   
     9     4     6 1   
    10     7     8 ar  
    11     7    33 1   
    12     8     9 ar  
    13     8    34 1   
    14     9    10 1   
    15    10    11 1   
    16    10    35 1   
    17    11    12 2   
    18    11    13 1   
    19    13    14 ar  
    20    13    16 ar  
    21    14    15 ar  
    22    14    36 1   
    23    15    18 ar  
    24    15    24 1   
    25    16    17 ar  
    26    16    37 1   
    27    17    18 ar  
    28    17    38 1   
    29    18    19 1   
    30    19    20 1   
    31    19    21 1   
    32    19    22 1   
    33    20    39 1   
    34    20    40 1   
    35    20    41 1   
    36    21    42 1   
    37    21    43 1   
    38    21    44 1   
    39    22    23 1   
    40    22    45 1   
    41    22    46 1   
    42    23    24 2   
    43    23    47 1   
    44    24    25 1   
    45    25    26 ar  
    46    25    30 ar  
    47    26    27 ar  
    48    26    48 1   
    49    27    28 ar  
    50    27    49 1   
    51    28    29 ar  
    52    28    50 1   
    53    29    30 ar  
    54    29    51 1   
    55    30    52 1   
@<TRIPOS>SUBSTRUCTURE
     1 1NY         1 TEMP              0 ****  ****    0 ROOT
