@<TRIPOS>MOLECULE
1NZ
   55    60     1     0     0
SMALL
bcc


@<TRIPOS>ATOM
      1 C1          0.0590   -0.2980   -0.1120 ca        1 1NZ      0.192900
      2 C2          1.4520   -0.1280   -0.1090 ca        1 1NZ     -0.219500
      3 C3          2.0560    0.5310    0.9750 ca        1 1NZ      0.194900
      4 C4          1.2820    1.0240    2.0380 ca        1 1NZ     -0.219500
      5 C5         -0.1090    0.8370    2.0150 ca        1 1NZ      0.192900
      6 C6         -0.7460    0.1630    0.9520 ca        1 1NZ     -0.211300
      7 C7         -2.2380   -0.0090    0.9220 c3        1 1NZ      0.271100
      8 N8         -3.5520   -3.2250   -0.3600 nc        1 1NZ     -0.669100
      9 C9         -3.0680   -2.0230   -0.2300 cd        1 1NZ      0.676100
     10 N10        -2.7110   -1.3740    0.9600 na        1 1NZ     -0.641000
     11 C11        -2.8710   -2.0820    2.1630 ca        1 1NZ      0.182600
     12 C12        -3.4060   -3.4000    2.1130 ca        1 1NZ     -0.208600
     13 C13        -3.6100   -4.1270    3.2880 ca        1 1NZ     -0.060000
     14 C14        -3.2630   -3.5610    4.5130 ca        1 1NZ      0.039100
     15 C15        -2.7180   -2.2680    4.5850 ca        1 1NZ     -0.064000
     16 C16        -2.5290   -1.5360    3.4240 ca        1 1NZ     -0.180000
     17 C17        -3.7560   -4.0150    0.8030 c         1 1NZ      0.700100
     18 O18        -4.2020   -5.1690    0.7190 o         1 1NZ     -0.522100
     19 F19        -4.2080   -5.4380    9.3930 f         1 1NZ     -0.225633
     20 O20        -3.5740   -4.1770    5.7270 os        1 1NZ     -0.225200
     21 C21        -2.9690   -5.3950    5.9910 ca        1 1NZ      0.159100
     22 C22        -1.9710   -5.9580    5.1840 ca        1 1NZ     -0.178000
     23 C23        -1.4120   -7.1800    5.5400 ca        1 1NZ     -0.074000
     24 C24        -1.8490   -7.8470    6.6820 ca        1 1NZ     -0.129000
     25 C25        -2.8520   -7.2880    7.4860 ca        1 1NZ     -0.038900
     26 C26        -3.4100   -6.0420    7.1650 ca        1 1NZ     -0.153300
     27 C27        -4.4620   -5.3640    8.0440 c3        1 1NZ      0.702200
     28 F28         3.3970    0.6990    0.9910 f         1 1NZ     -0.118900
     29 F29        -5.7320   -5.8550    7.8900 f         1 1NZ     -0.225633
     30 F30        -4.5980   -4.0130    7.8310 f         1 1NZ     -0.225633
     31 F31        -0.5170   -0.9080   -1.1740 f         1 1NZ     -0.126900
     32 F32        -0.8420    1.3310    3.0410 f         1 1NZ     -0.126900
     33 C33        -3.2920   -8.0670    8.6410 cc        1 1NZ      0.578200
     34 O34        -2.2290   -8.6440    9.4050 os        1 1NZ     -0.294700
     35 N35        -4.5110   -8.3710    9.0680 nd        1 1NZ     -0.574700
     36 C36        -4.3120   -9.2070   10.2080 ca        1 1NZ      0.519300
     37 C37        -2.8810   -9.3610   10.3980 ca        1 1NZ     -0.079200
     38 C38        -2.3610  -10.1210   11.4370 ca        1 1NZ     -0.072000
     39 C39        -3.3080  -10.7180   12.2670 ca        1 1NZ     -0.227300
     40 C40        -4.6910  -10.5290   12.0220 ca        1 1NZ      0.383200
     41 N41        -5.2210   -9.7990   11.0270 nb        1 1NZ     -0.585000
     42 H1          2.0610   -0.5030   -0.9450 ha        1 1NZ      0.177500
     43 H2          1.7580    1.5500    2.8780 ha        1 1NZ      0.177500
     44 H3         -2.6980    0.5570    1.7850 h1        1 1NZ      0.081200
     45 H4         -2.6150    0.4630   -0.0350 h1        1 1NZ      0.081200
     46 H5         -2.9060   -1.4290   -1.1590 h5        1 1NZ      0.061800
     47 H6         -4.0450   -5.1400    3.2280 ha        1 1NZ      0.180000
     48 H7         -2.4630   -1.8400    5.5670 ha        1 1NZ      0.162000
     49 H8         -2.1030   -0.5240    3.5020 ha        1 1NZ      0.151000
     50 H9         -1.6350   -5.4340    4.2760 ha        1 1NZ      0.160000
     51 H10        -0.6240   -7.6250    4.9120 ha        1 1NZ      0.150000
     52 H11        -1.4100   -8.8170    6.9630 ha        1 1NZ      0.159000
     53 H12        -1.2810  -10.2390   11.5910 ha        1 1NZ      0.158000
     54 H13        -2.9900  -11.3380   13.1160 ha        1 1NZ      0.151000
     55 H14        -5.4350  -11.0080   12.6870 h4        1 1NZ      0.032100
@<TRIPOS>BOND
     1    1    2 ar
     2    1    6 ar
     3    1   31 1
     4    2    3 ar
     5    2   42 1
     6    3    4 ar
     7    3   28 1
     8    4    5 ar
     9    4   43 1
    10    5    6 ar
    11    5   32 1
    12    6    7 1
    13    7   10 1
    14    7   44 1
    15    7   45 1
    16    8    9 2
    17    8   17 1
    18    9   10 1
    19    9   46 1
    20   10   11 1
    21   11   12 ar
    22   11   16 ar
    23   12   13 ar
    24   12   17 1
    25   13   14 ar
    26   13   47 1
    27   14   15 ar
    28   14   20 1
    29   15   16 ar
    30   15   48 1
    31   16   49 1
    32   17   18 2
    33   19   27 1
    34   20   21 1
    35   21   22 ar
    36   21   26 ar
    37   22   23 ar
    38   22   50 1
    39   23   24 ar
    40   23   51 1
    41   24   25 ar
    42   24   52 1
    43   25   26 ar
    44   25   33 1
    45   26   27 1
    46   27   29 1
    47   27   30 1
    48   33   34 1
    49   33   35 2
    50   34   37 1
    51   35   36 1
    52   36   37 ar
    53   36   41 ar
    54   37   38 ar
    55   38   39 ar
    56   38   53 1
    57   39   40 ar
    58   39   54 1
    59   40   41 ar
    60   40   55 1
@<TRIPOS>SUBSTRUCTURE
     1 1NZ         1 TEMP              0 ****  ****    0 ROOT
