@<TRIPOS>MOLECULE
1O0
   53    57     1     0     0
SMALL
bcc


@<TRIPOS>ATOM
      1 C1          -0.7730     0.0310    -1.2440 ca         1 1O0       0.192900
      2 C2           0.4700     0.3310    -1.8230 ca         1 1O0      -0.218500
      3 C3           1.4410     0.9890    -1.0510 ca         1 1O0       0.194900
      4 C4           1.1750     1.3550     0.2780 ca         1 1O0      -0.218500
      5 C5          -0.0730     1.0400     0.8380 ca         1 1O0       0.192900
      6 C6          -1.0640     0.3620     0.0970 ca         1 1O0      -0.211300
      7 C7          -2.4060     0.0500     0.6960 c3         1 1O0       0.273100
      8 N8          -3.9240    -3.2110    -0.1820 nc         1 1O0      -0.670100
      9 C9          -3.5190    -1.9740    -0.1620 cd         1 1O0       0.676100
     10 N10         -2.7290    -1.3530     0.8150 na         1 1O0      -0.641000
     11 C11         -2.2720    -2.1440     1.8840 ca         1 1O0       0.177600
     12 C12         -2.6650    -3.5110     1.9370 ca         1 1O0      -0.205600
     13 C13         -2.2320    -4.3320     2.9820 ca         1 1O0      -0.065000
     14 C14         -1.4290    -3.7970     3.9870 ca         1 1O0       0.049100
     15 C15         -1.0380    -2.4480     3.9590 ca         1 1O0      -0.070000
     16 C16         -1.4490    -1.6340     2.9150 ca         1 1O0      -0.178000
     17 C17         -3.5380    -4.0800     0.8740 c          1 1O0       0.700100
     18 O18         -3.9230    -5.2580     0.9010 o          1 1O0      -0.523100
     19 F19          1.1350    -5.9370     7.4840 f          1 1O0      -0.232967
     20 O20         -0.8530    -4.5860     4.9830 os         1 1O0      -0.232200
     21 C21         -1.7130    -5.3270     5.7800 ca         1 1O0       0.159100
     22 C22         -3.0950    -5.1060     5.8370 ca         1 1O0      -0.192000
     23 C23         -3.8700    -5.8720     6.7010 ca         1 1O0      -0.070000
     24 C24         -3.2760    -6.8350     7.5130 ca         1 1O0      -0.139000
     25 C25         -1.8920    -7.0460     7.4710 cp         1 1O0      -0.056500
     26 C26         -1.0950    -6.3070     6.5850 ca         1 1O0      -0.176300
     27 C27          0.4100    -6.5270     6.4730 c3         1 1O0       0.701200
     28 F28          2.6430     1.2800    -1.5960 f          1 1O0      -0.118900
     29 F29          0.9890    -6.0390     5.3290 f          1 1O0      -0.232967
     30 F30          0.8100    -7.8410     6.4930 f          1 1O0      -0.232967
     31 F31         -1.7130    -0.5770    -2.0050 f          1 1O0      -0.127900
     32 F32         -0.3200     1.4150     2.1160 f          1 1O0      -0.127900
     33 C33         -1.3270    -8.0540     8.3960 cp         1 1O0       0.429800
     34 C34         -0.5290    -7.6230     9.4780 ca         1 1O0      -0.221300
     35 N35         -1.6410    -9.3600     8.1900 nb         1 1O0      -0.641000
     36 C36         -1.1530   -10.2570     9.0640 ca         1 1O0       0.395200
     37 C37         -0.3520    -9.9190    10.1720 ca         1 1O0      -0.236300
     38 C38         -0.0400    -8.5760    10.3750 ca         1 1O0      -0.091000
     39 H1           0.6780     0.0530    -2.8670 ha         1 1O0       0.177500
     40 H2           1.9350     1.8810     0.8750 ha         1 1O0       0.177500
     41 H3          -3.1920     0.5320     0.0400 h1         1 1O0       0.079700
     42 H4          -2.4780     0.5230     1.7190 h1         1 1O0       0.079700
     43 H5          -3.8240    -1.3180    -1.0110 h5         1 1O0       0.060800
     44 H6          -2.5350    -5.3930     2.9960 ha         1 1O0       0.181000
     45 H7          -0.3910    -2.0530     4.7580 ha         1 1O0       0.160000
     46 H8          -1.1140    -0.5850     2.9010 ha         1 1O0       0.150000
     47 H9          -3.5590    -4.3380     5.2000 ha         1 1O0       0.156000
     48 H10         -4.9590    -5.7150     6.7410 ha         1 1O0       0.145000
     49 H11         -3.8950    -7.4440     8.1900 ha         1 1O0       0.154000
     50 H12         -0.2840    -6.5580     9.5930 ha         1 1O0       0.154000
     51 H13         -1.4210   -11.3090     8.8590 h4         1 1O0       0.026100
     52 H14          0.0150   -10.7000    10.8500 ha         1 1O0       0.146000
     53 H15          0.5850    -8.2660    11.2250 ha         1 1O0       0.142000
@<TRIPOS>BOND
     1     1     2 ar  
     2     1     6 ar  
     3     1    31 1   
     4     2     3 ar  
     5     2    39 1   
     6     3     4 ar  
     7     3    28 1   
     8     4     5 ar  
     9     4    40 1   
    10     5     6 ar  
    11     5    32 1   
    12     6     7 1   
    13     7    10 1   
    14     7    41 1   
    15     7    42 1   
    16     8     9 2   
    17     8    17 1   
    18     9    10 1   
    19     9    43 1   
    20    10    11 1   
    21    11    12 ar  
    22    11    16 ar  
    23    12    13 ar  
    24    12    17 1   
    25    13    14 ar  
    26    13    44 1   
    27    14    15 ar  
    28    14    20 1   
    29    15    16 ar  
    30    15    45 1   
    31    16    46 1   
    32    17    18 2   
    33    19    27 1   
    34    20    21 1   
    35    21    22 ar  
    36    21    26 ar  
    37    22    23 ar  
    38    22    47 1   
    39    23    24 ar  
    40    23    48 1   
    41    24    25 ar  
    42    24    49 1   
    43    25    26 ar  
    44    25    33 1   
    45    26    27 1   
    46    27    29 1   
    47    27    30 1   
    48    33    34 ar  
    49    33    35 ar  
    50    34    38 ar  
    51    34    50 1   
    52    35    36 ar  
    53    36    37 ar  
    54    36    51 1   
    55    37    38 ar  
    56    37    52 1   
    57    38    53 1   
@<TRIPOS>SUBSTRUCTURE
     1 1O0         1 TEMP              0 ****  ****    0 ROOT
