@<TRIPOS>MOLECULE
1O0
   53    57     1     0     0
SMALL
bcc


@<TRIPOS>ATOM
      1 C1           0.0000     0.0000     0.0000 ca         1 1O0       0.177400
      2 C2           1.3850     0.0000     0.0000 ca         1 1O0      -0.174500
      3 C3           2.0770     0.0000     1.1990 ca         1 1O0       0.176900
      4 C4           1.3850     0.0010     2.3980 ca         1 1O0      -0.174500
      5 C5           0.0000     0.0030     2.3980 ca         1 1O0       0.177400
      6 C6          -0.6920     0.0070     1.1990 ca         1 1O0      -0.216300
      7 C7          -2.1990     0.0140     1.1980 c3         1 1O0       0.198100
      8 N8          -3.2330    -3.1150    -0.3810 nc         1 1O0      -0.624100
      9 C9          -2.8010    -1.9010    -0.1690 cd         1 1O0       0.515100
     10 N10         -2.6940    -1.3560     1.0550 na         1 1O0      -0.184000
     11 C11         -3.0460    -2.0800     2.1780 ca         1 1O0       0.008600
     12 C12         -3.5180    -3.3940     2.0050 ca         1 1O0      -0.208600
     13 C13         -3.8830    -4.1560     3.1130 ca         1 1O0      -0.025000
     14 C14         -3.7780    -3.6090     4.3790 ca         1 1O0       0.061100
     15 C15         -3.3110    -2.3080     4.5460 ca         1 1O0      -0.043000
     16 C16         -2.9480    -1.5460     3.4560 ca         1 1O0      -0.167000
     17 C17         -3.6070    -3.9190     0.6310 c          1 1O0       0.723100
     18 O18         -4.0090    -5.0500     0.4160 o          1 1O0      -0.568100
     19 F19         -4.4270    -5.3510     9.1430 f          1 1O0      -0.210633
     20 O20         -4.1320    -4.3450     5.4650 os         1 1O0      -0.196200
     21 C21         -3.2780    -5.3160     5.8820 ca         1 1O0       0.193100
     22 C22         -2.1330    -5.5970     5.1480 ca         1 1O0      -0.208000
     23 C23         -1.2620    -6.5840     5.5690 ca         1 1O0      -0.026000
     24 C24         -1.5250    -7.2970     6.7210 ca         1 1O0      -0.146000
     25 C25         -2.6720    -7.0210     7.4650 cp         1 1O0      -0.047500
     26 C26         -3.5460    -6.0230     7.0430 ca         1 1O0      -0.216300
     27 C27         -4.7880    -5.7190     7.8420 c3         1 1O0       0.678200
     28 F28          3.4270    -0.0010     1.1990 f          1 1O0      -0.111900
     29 F29         -5.6020    -6.8560     7.8890 f          1 1O0      -0.210633
     30 F30         -5.4870    -4.6700     7.2360 f          1 1O0      -0.210633
     31 F31         -0.6750    -0.0000    -1.1700 f          1 1O0      -0.114400
     32 F32         -0.6750     0.0030     3.5680 f          1 1O0      -0.114400
     33 C33         -2.9570    -7.7860     8.7040 cp         1 1O0       0.419800
     34 C34         -2.0400    -8.7300     9.1590 ca         1 1O0      -0.205300
     35 N35         -4.0810    -7.5610     9.3720 nb         1 1O0      -0.573000
     36 C36         -4.3720    -8.2180    10.4760 ca         1 1O0       0.422200
     37 C37         -3.5100    -9.1730    10.9810 ca         1 1O0      -0.215300
     38 C38         -2.3200    -9.4350    10.3170 ca         1 1O0      -0.066000
     39 H1           1.9260    -0.0030    -0.9380 ha         1 1O0       0.145500
     40 H2           1.9270    -0.0000     3.3370 ha         1 1O0       0.145500
     41 H3          -2.5580     0.4320     2.1310 h1         1 1O0       0.055200
     42 H4          -2.5570     0.6160     0.3720 h1         1 1O0       0.055200
     43 H5          -2.5140    -1.3020    -1.0250 h5         1 1O0       0.015800
     44 H6          -4.2470    -5.1680     2.9830 ha         1 1O0       0.144000
     45 H7          -3.2320    -1.8900     5.5420 ha         1 1O0       0.121000
     46 H8          -2.5850    -0.5350     3.5960 ha         1 1O0       0.137000
     47 H9          -1.9220    -5.0410     4.2430 ha         1 1O0       0.132000
     48 H10         -0.3710    -6.7990     4.9920 ha         1 1O0       0.105000
     49 H11         -0.8410    -8.0710     7.0470 ha         1 1O0       0.119000
     50 H12         -1.1200    -8.9100     8.6160 ha         1 1O0       0.121000
     51 H13         -5.3010    -8.0090    10.9940 h4         1 1O0      -0.014900
     52 H14         -3.7580    -9.7080    11.8900 ha         1 1O0       0.114000
     53 H15         -1.6270   -10.1780    10.6940 ha         1 1O0       0.109000
@<TRIPOS>BOND
     1     1     2 ar  
     2     1     6 ar  
     3     1    31 1   
     4     2     3 ar  
     5     2    39 1   
     6     3     4 ar  
     7     3    28 1   
     8     4     5 ar  
     9     4    40 1   
    10     5     6 ar  
    11     5    32 1   
    12     6     7 1   
    13     7    10 1   
    14     7    41 1   
    15     7    42 1   
    16     8     9 2   
    17     8    17 1   
    18     9    10 1   
    19     9    43 1   
    20    10    11 1   
    21    11    12 ar  
    22    11    16 ar  
    23    12    13 ar  
    24    12    17 1   
    25    13    14 ar  
    26    13    44 1   
    27    14    15 ar  
    28    14    20 1   
    29    15    16 ar  
    30    15    45 1   
    31    16    46 1   
    32    17    18 2   
    33    19    27 1   
    34    20    21 1   
    35    21    22 ar  
    36    21    26 ar  
    37    22    23 ar  
    38    22    47 1   
    39    23    24 ar  
    40    23    48 1   
    41    24    25 ar  
    42    24    49 1   
    43    25    26 ar  
    44    25    33 1   
    45    26    27 1   
    46    27    29 1   
    47    27    30 1   
    48    33    34 ar  
    49    33    35 ar  
    50    34    38 ar  
    51    34    50 1   
    52    35    36 ar  
    53    36    37 ar  
    54    36    51 1   
    55    37    38 ar  
    56    37    52 1   
    57    38    53 1   
@<TRIPOS>SUBSTRUCTURE
     1 1O0         1 TEMP              0 ****  ****    0 ROOT
