@<TRIPOS>MOLECULE
1O1
   45    47     1     0     0
SMALL
bcc


@<TRIPOS>ATOM
      1 C1           0.1730    -0.7320     0.3260 ca         1 1O1      -0.014500
      2 C2           1.5660    -0.6670     0.2570 ca         1 1O1      -0.167500
      3 C3           2.2840     0.1280     1.1540 ca         1 1O1      -0.038300
      4 C4           1.5880     0.8600     2.1250 ca         1 1O1      -0.167500
      5 C5           0.2020     0.7910     2.1890 ca         1 1O1      -0.014500
      6 C6          -0.5270     0.0040     1.2870 ca         1 1O1      -0.364500
      7 S7          -2.2240    -0.0020     1.3810 sy         1 1O1       1.483200
      8 O8          -2.5810     0.4370     2.6860 o          1 1O1      -0.677300
      9 O9          -2.7290     0.8500     0.3570 o          1 1O1      -0.677300
     10 N10         -2.6750    -1.5100     1.0800 nu         1 1O1      -0.757500
     11 C11         -2.4080    -2.6500     1.8680 ca         1 1O1       0.121600
     12 C12         -1.9840    -3.8630     1.2630 ca         1 1O1      -0.133600
     13 C13         -1.7670    -4.9820     2.0660 ca         1 1O1      -0.114000
     14 C14         -1.9540    -4.9110     3.4560 ca         1 1O1       0.093100
     15 C15         -2.3640    -3.7200     4.0570 ca         1 1O1      -0.177000
     16 C16         -2.5960    -2.5990     3.2660 ca         1 1O1      -0.157000
     17 C17         -1.7580    -4.0230    -0.2330 c          1 1O1       0.912200
     18 O18         -1.7060    -5.1910    -0.7050 o          1 1O1      -0.838300
     19 O19         -1.6200    -2.9900    -0.9640 o          1 1O1      -0.838300
     20 O20         -1.7620    -6.1080     4.1370 os         1 1O1      -0.262200
     21 C21         -1.6140    -6.0410     5.5240 ca         1 1O1       0.074100
     22 C22         -0.6440    -5.2400     6.1380 ca         1 1O1      -0.177000
     23 C23         -0.4540    -5.3430     7.5150 ca         1 1O1      -0.098500
     24 C24         -1.2140    -6.2340     8.2800 ca         1 1O1      -0.138600
     25 C25         -2.1840    -7.0200     7.6500 ca         1 1O1      -0.098500
     26 C26         -2.3970    -6.9290     6.2760 ca         1 1O1      -0.177000
     27 C27         -0.9880    -6.3540     9.7770 c          1 1O1       0.908200
     28 C28          3.7630     0.1760     1.1000 c3         1 1O1      -0.054800
     29 O29         -1.7050    -7.1680    10.4280 o          1 1O1      -0.841300
     30 O30         -0.0910    -5.6370    10.3080 o          1 1O1      -0.841300
     31 H1          -0.3680    -1.4040    -0.3790 ha         1 1O1       0.179500
     32 H2           2.0970    -1.2600    -0.5020 ha         1 1O1       0.127500
     33 H3           2.1420     1.4800     2.8440 ha         1 1O1       0.127500
     34 H4          -0.3410     1.3530     2.9690 ha         1 1O1       0.179500
     35 H5          -2.8520    -1.7770     0.1190 hn         1 1O1       0.497800
     36 H6          -1.4580    -5.9270     1.5900 ha         1 1O1       0.169000
     37 H7          -2.5030    -3.6670     5.1470 ha         1 1O1       0.147000
     38 H8          -2.9220    -1.6640     3.7510 ha         1 1O1       0.148000
     39 H10         -0.0510    -4.5410     5.5330 ha         1 1O1       0.126000
     40 H11          0.3020    -4.7280     8.0280 ha         1 1O1       0.148000
     41 H12         -2.7770    -7.7130     8.2680 ha         1 1O1       0.148000
     42 H13         -3.1520    -7.5470     5.7730 ha         1 1O1       0.126000
     43 H14          4.1910    -0.6150     1.7670 hc         1 1O1       0.038367
     44 H15          4.1320    -0.0060     0.0610 hc         1 1O1       0.038367
     45 H16          4.1450     1.1680     1.4440 hc         1 1O1       0.038367
@<TRIPOS>BOND
     1     1     2 ar  
     2     1     6 ar  
     3     1    31 1   
     4     2     3 ar  
     5     2    32 1   
     6     3     4 ar  
     7     3    28 1   
     8     4     5 ar  
     9     4    33 1   
    10     5     6 ar  
    11     5    34 1   
    12     6     7 1   
    13     7     8 2   
    14     7     9 2   
    15     7    10 1   
    16    10    11 1   
    17    10    35 1   
    18    11    12 ar  
    19    11    16 ar  
    20    12    13 ar  
    21    12    17 1   
    22    13    14 ar  
    23    13    36 1   
    24    14    15 ar  
    25    14    20 1   
    26    15    16 ar  
    27    15    37 1   
    28    16    38 1   
    29    17    18 1   
    30    17    19 1   
    31    20    21 1   
    32    21    22 ar  
    33    21    26 ar  
    34    22    23 ar  
    35    22    39 1   
    36    23    24 ar  
    37    23    40 1   
    38    24    25 ar  
    39    24    27 1   
    40    25    26 ar  
    41    25    41 1   
    42    26    42 1   
    43    27    29 1   
    44    27    30 1   
    45    28    43 1   
    46    28    44 1   
    47    28    45 1   
@<TRIPOS>SUBSTRUCTURE
     1 1O1         1 TEMP              0 ****  ****    0 ROOT
