@<TRIPOS>MOLECULE
1O1
   45    47     1     0     0
SMALL
bcc


@<TRIPOS>ATOM
      1 C1           0.0000     0.0000     0.0000 ca         1 1O1       0.016000
      2 C2           1.3820     0.0000     0.0000 ca         1 1O1      -0.140500
      3 C3           2.0740     0.0000     1.1970 ca         1 1O1      -0.042300
      4 C4           1.3830     0.0010     2.3940 ca         1 1O1      -0.140500
      5 C5           0.0000     0.0010     2.3940 ca         1 1O1       0.016000
      6 C6          -0.6910     0.0010     1.1980 ca         1 1O1      -0.147500
      7 S7          -2.4530     0.0080     1.1970 sy         1 1O1       1.019200
      8 O8          -2.8520     0.5520     2.4480 o          1 1O1      -0.621800
      9 O9          -2.8520     0.5570    -0.0520 o          1 1O1      -0.621800
     10 N10         -2.9500    -1.5720     1.1940 nu         1 1O1      -0.356500
     11 C11         -2.6040    -2.4120     2.2470 ca         1 1O1       0.074600
     12 C12         -2.3130    -3.7630     2.0030 ca         1 1O1      -0.135600
     13 C13         -1.9660    -4.5980     3.0700 ca         1 1O1      -0.060000
     14 C14         -1.9100    -4.0880     4.3530 ca         1 1O1       0.057100
     15 C15         -2.1990    -2.7480     4.5880 ca         1 1O1      -0.110000
     16 C16         -2.5380    -1.9140     3.5430 ca         1 1O1      -0.223000
     17 C17         -2.3740    -4.2990     0.6330 c          1 1O1       0.988200
     18 O18         -2.6770    -3.5700    -0.2910 o          1 1O1      -0.885800
     19 O19         -2.0950    -5.5970     0.4040 o          1 1O1      -0.885800
     20 O20         -1.5740    -4.9000     5.3900 os         1 1O1      -0.238200
     21 C21         -0.2640    -5.2120     5.5550 ca         1 1O1       0.122100
     22 C22          0.1370    -5.9740     6.6480 ca         1 1O1      -0.207500
     23 C23          1.4650    -6.2930     6.8180 ca         1 1O1      -0.041000
     24 C24          2.4120    -5.8500     5.8900 ca         1 1O1      -0.154600
     25 C25          2.0060    -5.0860     4.7930 ca         1 1O1      -0.041000
     26 C26          0.6750    -4.7760     4.6270 ca         1 1O1      -0.207500
     27 C27          3.8360    -6.1900     6.0690 c          1 1O1       0.987200
     28 C28          3.5810    -0.0010     1.1970 c3         1 1O1       0.057200
     29 O29          4.7480    -5.7630     5.1730 o          1 1O1      -0.902300
     30 O30          4.1870    -6.8540     7.0240 o          1 1O1      -0.902300
     31 H1          -0.5420    -0.0000    -0.9380 ha         1 1O1       0.124000
     32 H2           1.9240    -0.0010    -0.9380 ha         1 1O1       0.105500
     33 H3           1.9240     0.0010     3.3320 ha         1 1O1       0.105500
     34 H4          -0.5410     0.0020     3.3320 ha         1 1O1       0.124000
     35 H5          -3.5450    -1.9060     0.4620 hn         1 1O1       0.396800
     36 H6          -1.7400    -5.6420     2.8900 ha         1 1O1       0.147000
     37 H7          -2.1510    -2.3560     5.5970 ha         1 1O1       0.096000
     38 H8          -2.7620    -0.8720     3.7340 ha         1 1O1       0.159000
     39 H10         -0.5980    -6.3160     7.3660 ha         1 1O1       0.107500
     40 H11          1.7830    -6.8330     7.7020 ha         1 1O1       0.118000
     41 H12          2.7320    -4.7730     4.0530 ha         1 1O1       0.118000
     42 H13          0.3600    -4.1880     3.7730 ha         1 1O1       0.107500
     43 H14          3.9410    -0.9840     0.9190 hc         1 1O1       0.007033
     44 H15          3.9420     0.2490     2.1870 hc         1 1O1       0.007033
     45 H16          3.9420     0.7310     0.4850 hc         1 1O1       0.007033
@<TRIPOS>BOND
     1     1     2 ar  
     2     1     6 ar  
     3     1    31 1   
     4     2     3 ar  
     5     2    32 1   
     6     3     4 ar  
     7     3    28 1   
     8     4     5 ar  
     9     4    33 1   
    10     5     6 ar  
    11     5    34 1   
    12     6     7 1   
    13     7     8 2   
    14     7     9 2   
    15     7    10 1   
    16    10    11 1   
    17    10    35 1   
    18    11    12 ar  
    19    11    16 ar  
    20    12    13 ar  
    21    12    17 1   
    22    13    14 ar  
    23    13    36 1   
    24    14    15 ar  
    25    14    20 1   
    26    15    16 ar  
    27    15    37 1   
    28    16    38 1   
    29    17    18 1   
    30    17    19 1   
    31    20    21 1   
    32    21    22 ar  
    33    21    26 ar  
    34    22    23 ar  
    35    22    39 1   
    36    23    24 ar  
    37    23    40 1   
    38    24    25 ar  
    39    24    27 1   
    40    25    26 ar  
    41    25    41 1   
    42    26    42 1   
    43    27    29 1   
    44    27    30 1   
    45    28    43 1   
    46    28    44 1   
    47    28    45 1   
@<TRIPOS>SUBSTRUCTURE
     1 1O1         1 TEMP              0 ****  ****    0 ROOT
