@<TRIPOS>MOLECULE
molecule
   45    47     1     0     0
SMALL
bcc


@<TRIPOS>ATOM
      1 C1           0.0000     0.0000     0.0000 ca         1 1O1      -0.014500
      2 C2           1.3820     0.0000     0.0000 ca         1 1O1      -0.156000
      3 C3           2.0740     0.0000     1.1970 ca         1 1O1      -0.033300
      4 C4           1.3830     0.0010     2.3940 ca         1 1O1      -0.156000
      5 C5           0.0000     0.0010     2.3940 ca         1 1O1      -0.014500
      6 C6          -0.6910     0.0010     1.1980 ca         1 1O1      -0.302500
      7 S7          -2.4530     0.0080     1.1970 sy         1 1O1       1.423200
      8 O8          -2.8520     0.5520     2.4480 o          1 1O1      -0.668800
      9 O9          -2.8520     0.5570    -0.0520 o          1 1O1      -0.668800
     10 N10         -2.9500    -1.5720     1.1940 nu         1 1O1      -0.733500
     11 C11         -2.6040    -2.4120     2.2470 ca         1 1O1       0.150600
     12 C12         -2.3130    -3.7630     2.0030 ca         1 1O1      -0.120600
     13 C13         -1.9660    -4.5980     3.0700 ca         1 1O1      -0.088000
     14 C14         -1.9100    -4.0880     4.3530 ca         1 1O1       0.066100
     15 C15         -2.1990    -2.7480     4.5880 ca         1 1O1      -0.133000
     16 C16         -2.5380    -1.9140     3.5430 ca         1 1O1      -0.217000
     17 C17         -2.3740    -4.2990     0.6330 c          1 1O1       0.892200
     18 O18         -2.6770    -3.5700    -0.2910 o          1 1O1      -0.838300
     19 O19         -2.0950    -5.5970     0.4040 o          1 1O1      -0.838300
     20 O20         -1.5740    -4.9000     5.3900 os         1 1O1      -0.270200
     21 C21         -0.2640    -5.2120     5.5550 ca         1 1O1       0.114100
     22 C22          0.1370    -5.9740     6.6480 ca         1 1O1      -0.211500
     23 C23          1.4650    -6.2930     6.8180 ca         1 1O1      -0.073000
     24 C24          2.4120    -5.8500     5.8900 ca         1 1O1      -0.146600
     25 C25          2.0060    -5.0860     4.7930 ca         1 1O1      -0.073000
     26 C26          0.6750    -4.7760     4.6270 ca         1 1O1      -0.211500
     27 C27          3.8360    -6.1900     6.0690 c          1 1O1       0.890200
     28 C28          3.5810    -0.0010     1.1970 c3         1 1O1      -0.053800
     29 O29          4.7480    -5.7630     5.1730 o          1 1O1      -0.853800
     30 O30          4.1870    -6.8540     7.0240 o          1 1O1      -0.853800
     31 H1          -0.5420    -0.0000    -0.9380 ha         1 1O1       0.150500
     32 H2           1.9240    -0.0010    -0.9380 ha         1 1O1       0.129500
     33 H3           1.9240     0.0010     3.3320 ha         1 1O1       0.129500
     34 H4          -0.5410     0.0020     3.3320 ha         1 1O1       0.150500
     35 H5          -3.5450    -1.9060     0.4620 hn         1 1O1       0.501800
     36 H6          -1.7400    -5.6420     2.8900 ha         1 1O1       0.176000
     37 H7          -2.1510    -2.3560     5.5970 ha         1 1O1       0.123000
     38 H8          -2.7620    -0.8720     3.7340 ha         1 1O1       0.162000
     39 H10         -0.5980    -6.3160     7.3660 ha         1 1O1       0.124500
     40 H11          1.7830    -6.8330     7.7020 ha         1 1O1       0.146000
     41 H12          2.7320    -4.7730     4.0530 ha         1 1O1       0.146000
     42 H13          0.3600    -4.1880     3.7730 ha         1 1O1       0.124500
     43 H14          3.9410    -0.9840     0.9190 hc         1 1O1       0.043033
     44 H15          3.9420     0.2490     2.1870 hc         1 1O1       0.043033
     45 H16          3.9420     0.7310     0.4850 hc         1 1O1       0.043033
@<TRIPOS>BOND
     1    28     3 1   
     2    22    23 ar  
     3    22    21 ar  
     4    23    24 ar  
     5     3     4 ar  
     6     3     2 ar  
     7     4     5 ar  
     8    20    21 1   
     9    20    14 1   
    10    30    27 1   
    11    21    26 ar  
    12     2     1 ar  
    13    24    27 1   
    14    24    25 ar  
    15    27    29 1   
    16    14    13 ar  
    17    14    15 ar  
    18    13    12 ar  
    19    26    25 ar  
    20     5     6 ar  
    21     1     6 ar  
    22    15    16 ar  
    23    18    17 1   
    24    12    17 1   
    25    12    11 ar  
    26     6     7 1   
    27    17    19 1   
    28    16    11 ar  
    29    11    10 1   
    30    10     7 1   
    31     7     8 2   
    32     7     9 2   
    33     1    31 1   
    34     2    32 1   
    35     4    33 1   
    36     5    34 1   
    37    10    35 1   
    38    13    36 1   
    39    15    37 1   
    40    16    38 1   
    41    22    39 1   
    42    23    40 1   
    43    25    41 1   
    44    26    42 1   
    45    28    43 1   
    46    28    44 1   
    47    28    45 1   
@<TRIPOS>SUBSTRUCTURE
     1 1O1         1 TEMP              0 ****  ****    0 ROOT
