@<TRIPOS>MOLECULE
molecule
  133   133     1     0     0
SMALL
bcc


@<TRIPOS>ATOM
      1 C1           0.0000     0.0000     0.0000 c3         1 1O2       0.314900
      2 O1          -0.4760    -1.1940     0.6250 os         1 1O2      -0.410600
      3 C2           1.5320     0.0000     0.0000 c3         1 1O2       0.146100
      4 O2           2.0100    -1.1670    -0.6710 oh         1 1O2      -0.592800
      5 C3           2.0350     0.0000     1.4480 c3         1 1O2       0.128100
      6 O3           3.4610     0.0750     1.4580 oh         1 1O2      -0.596800
      7 C4           1.4530     1.2140     2.1780 c3         1 1O2       0.090100
      8 O4           1.9280     2.4130     1.5640 oh         1 1O2      -0.586800
      9 C5          -0.0750     1.1670     2.0940 c3         1 1O2       0.146100
     10 O5          -0.4750     1.1380     0.7220 os         1 1O2      -0.413600
     11 C6          -0.6620     2.4080     2.7700 c3         1 1O2       0.147400
     12 O6          -2.0880     2.3070     2.7950 oh         1 1O2      -0.602800
     13 CAL         -1.8830    -1.4040     0.4800 c3         1 1O2       0.117400
     14 CAM         -2.2790    -2.7040     1.1840 c3         1 1O2       0.152100
     15 OAN         -2.0550    -2.5680     2.6120 os         1 1O2      -0.412900
     16 CAO         -3.0760    -2.0980     3.3470 c          1 1O2       0.629100
     17 OAP         -4.1210    -1.8100     2.8140 o          1 1O2      -0.552000
     18 CAQ         -2.9180    -1.9310     4.8360 c3         1 1O2      -0.123400
     19 CAR         -4.2190    -1.3840     5.4280 c3         1 1O2      -0.073400
     20 CAS         -4.0590    -1.2140     6.9400 c3         1 1O2      -0.083400
     21 CAT         -5.3590    -0.6660     7.5320 c3         1 1O2      -0.080400
     22 CAU         -5.1990    -0.4960     9.0440 c3         1 1O2      -0.082400
     23 CAV         -6.4990     0.0510     9.6370 c3         1 1O2      -0.081400
     24 CAW         -6.3390     0.2220    11.1490 c3         1 1O2      -0.081400
     25 CAX         -7.6390     0.7680    11.7410 c3         1 1O2      -0.082400
     26 CAY         -7.4790     0.9380    13.2530 c3         1 1O2      -0.082400
     27 CAZ         -8.7800     1.4860    13.8450 c3         1 1O2      -0.082400
     28 CBA         -8.6190     1.6560    15.3570 c3         1 1O2      -0.082400
     29 CBB         -9.9190     2.2040    15.9490 c3         1 1O2      -0.082400
     30 CBC         -9.7590     2.3740    17.4620 c3         1 1O2      -0.081400
     31 CBD        -11.0590     2.9200    18.0540 c3         1 1O2      -0.084400
     32 CBE        -10.8990     3.0910    19.5660 c3         1 1O2      -0.092100
     33 CBF         -1.4310    -3.8560     0.6420 c3         1 1O2       0.151400
     34 OBG         -0.0230    -3.5280     0.7820 os         1 1O2      -0.389900
     35 CBH          0.8610    -4.4420     0.3500 c          1 1O2       0.633100
     36 OBI          0.4720    -5.4810    -0.1280 o          1 1O2      -0.568000
     37 CBJ          2.3400    -4.1720     0.4630 c3         1 1O2      -0.128400
     38 CBK          3.1200    -5.3640    -0.0960 c3         1 1O2      -0.072400
     39 CBL          4.6210    -5.0880     0.0180 c3         1 1O2      -0.083400
     40 CBM          5.4010    -6.2800    -0.5410 c3         1 1O2      -0.078400
     41 CBN          6.9010    -6.0060    -0.4270 c3         1 1O2      -0.087400
     42 CBO          7.6820    -7.1970    -0.9860 c3         1 1O2      -0.034400
     43 CBP          9.1830    -6.9220    -0.8720 c3         1 1O2      -0.147200
     44 CBQ          9.9510    -8.0960    -1.4230 c2         1 1O2      -0.339200
     45 CBR         10.8730    -7.9060    -2.3330 c2         1 1O2      -0.343200
     46 CBS         11.2860    -6.5050    -2.7070 c3         1 1O2      -0.146200
     47 CBT         12.8040    -6.3670    -2.5720 c3         1 1O2      -0.034400
     48 CBU         13.2230    -4.9450    -2.9520 c3         1 1O2      -0.087400
     49 CBV         14.7400    -4.8080    -2.8170 c3         1 1O2      -0.080400
     50 CBW         15.1590    -3.3850    -3.1960 c3         1 1O2      -0.082400
     51 CBX         16.6770    -3.2480    -3.0610 c3         1 1O2      -0.081400
     52 CBZ         17.0950    -1.8260    -3.4410 c3         1 1O2      -0.084400
     53 CCA         18.6130    -1.6880    -3.3060 c3         1 1O2      -0.092100
     54 H1          -0.3590     0.0470    -1.0210 h2         1 1O2       0.077700
     55 H2           1.8920     0.8870    -0.5060 h1         1 1O2       0.077700
     56 HO2          2.3460    -0.9270    -1.5190 ho         1 1O2       0.404000
     57 H3           1.7110    -0.9080     1.9420 h1         1 1O2       0.071700
     58 HO3          3.7900    -0.3020     2.2570 ho         1 1O2       0.400000
     59 H4           1.7570     1.1880     3.2180 h1         1 1O2       0.037700
     60 HO4          2.5390     2.8410     2.1410 ho         1 1O2       0.403000
     61 H5          -0.4350     0.2750     2.5920 h1         1 1O2       0.071700
     62 H6          -0.3720     3.2930     2.2150 h1         1 1O2       0.034200
     63 H6A         -0.2870     2.4790     3.7830 h1         1 1O2       0.034200
     64 HO6         -2.4570     3.1380     3.0460 ho         1 1O2       0.404000
     65 HAL         -2.1310    -1.4730    -0.5720 h1         1 1O2       0.048700
     66 HALA        -2.4190    -0.5750     0.9240 h1         1 1O2       0.048700
     67 HAM         -3.3260    -2.9090     1.0010 h1         1 1O2       0.091700
     68 HAQ         -2.1100    -1.2390     5.0380 hc         1 1O2       0.071200
     69 HAQA        -2.6930    -2.8910     5.2850 hc         1 1O2       0.071200
     70 HAR         -5.0270    -2.0760     5.2260 hc         1 1O2       0.060200
     71 HARA        -4.4440    -0.4240     4.9780 hc         1 1O2       0.060200
     72 HAS         -3.8340    -2.1730     7.3900 hc         1 1O2       0.040200
     73 HASA        -3.2500    -0.5210     7.1420 hc         1 1O2       0.040200
     74 HAT         -6.1670    -1.3580     7.3300 hc         1 1O2       0.044700
     75 HATA        -5.5840     0.2940     7.0820 hc         1 1O2       0.044700
     76 HAU         -4.3910     0.1970     9.2460 hc         1 1O2       0.040200
     77 HAUA        -4.9720    -1.4550     9.4940 hc         1 1O2       0.040200
     78 HAV         -7.3070    -0.6420     9.4350 hc         1 1O2       0.042200
     79 HAVA        -6.7260     1.0100     9.1870 hc         1 1O2       0.042200
     80 HAW         -5.5310     0.9150    11.3500 hc         1 1O2       0.040700
     81 HAWA        -6.1130    -0.7370    11.5990 hc         1 1O2       0.040700
     82 HAX         -8.4470     0.0760    11.5390 hc         1 1O2       0.041200
     83 HAXA        -7.8650     1.7280    11.2910 hc         1 1O2       0.041200
     84 HAY         -6.6710     1.6310    13.4550 hc         1 1O2       0.040700
     85 HAYA        -7.2530    -0.0210    13.7030 hc         1 1O2       0.040700
     86 HAZ         -9.0050     2.4460    13.3960 hc         1 1O2       0.041200
     87 HAZA        -9.5880     0.7940    13.6440 hc         1 1O2       0.041200
     88 HBA         -8.3930     0.6960    15.8060 hc         1 1O2       0.040700
     89 HBAA        -7.8100     2.3480    15.5590 hc         1 1O2       0.040700
     90 HBB        -10.1450     3.1630    15.5000 hc         1 1O2       0.040700
     91 HBBA       -10.7280     1.5110    15.7470 hc         1 1O2       0.040700
     92 HBC         -8.9510     3.0660    17.6640 hc         1 1O2       0.040700
     93 HBCA        -9.5330     1.4140    17.9110 hc         1 1O2       0.040700
     94 HBD        -11.2860     3.8790    17.6040 hc         1 1O2       0.039700
     95 HBDA       -11.8670     2.2270    17.8520 hc         1 1O2       0.039700
     96 HBE        -10.0910     3.7840    19.7670 hc         1 1O2       0.032367
     97 HBEA       -10.6740     2.1320    20.0160 hc         1 1O2       0.032367
     98 HBEB       -11.8200     3.4790    19.9850 hc         1 1O2       0.032367
     99 HBF         -1.6490    -4.7590     1.2010 h1         1 1O2       0.059700
    100 HBFA        -1.6630    -4.0140    -0.4040 h1         1 1O2       0.059700
    101 HBJ          2.6020    -4.0250     1.5030 hc         1 1O2       0.079700
    102 HBJA         2.5880    -3.2810    -0.1020 hc         1 1O2       0.079700
    103 HBK          2.8570    -5.5110    -1.1370 hc         1 1O2       0.056700
    104 HBKA         2.8720    -6.2540     0.4690 hc         1 1O2       0.056700
    105 HBL          4.8680    -4.1980    -0.5470 hc         1 1O2       0.040200
    106 HBLA         4.8830    -4.9410     1.0580 hc         1 1O2       0.040200
    107 HBM          5.1390    -6.4270    -1.5820 hc         1 1O2       0.047200
    108 HBMA         5.1520    -7.1710     0.0230 hc         1 1O2       0.047200
    109 HBN          7.1640    -5.8590     0.6140 hc         1 1O2       0.040200
    110 HBNA         7.1490    -5.1150    -0.9910 hc         1 1O2       0.040200
    111 HBO          7.4330    -8.0880    -0.4230 hc         1 1O2       0.058700
    112 HBOA         7.4200    -7.3430    -2.0270 hc         1 1O2       0.058700
    113 HBP          9.4450    -6.7760     0.1690 hc         1 1O2       0.033700
    114 HBPA         9.4310    -6.0310    -1.4350 hc         1 1O2       0.033700
    115 HBQ         10.3510    -7.4980    -0.6130 ha         1 1O2       0.331000
    116 HBR         10.3120    -7.3350    -3.0620 ha         1 1O2       0.330000
    117 HBS         10.9950    -6.3050    -3.7310 hc         1 1O2       0.034200
    118 HBSA        10.7990    -5.7970    -2.0480 hc         1 1O2       0.034200
    119 HBT         13.0950    -6.5680    -1.5480 hc         1 1O2       0.058200
    120 HBTA        13.2910    -7.0750    -3.2320 hc         1 1O2       0.058200
    121 HBU         12.9320    -4.7440    -3.9750 hc         1 1O2       0.040700
    122 HBUA        12.7360    -4.2370    -2.2920 hc         1 1O2       0.040700
    123 HBV         15.2270    -5.5150    -3.4770 hc         1 1O2       0.044200
    124 HBVA        15.0320    -5.0090    -1.7940 hc         1 1O2       0.044200
    125 HBW         14.6720    -2.6780    -2.5360 hc         1 1O2       0.040700
    126 HBWA        14.8670    -3.1840    -4.2200 hc         1 1O2       0.040700
    127 HBX         16.9690    -3.4490    -2.0380 hc         1 1O2       0.042200
    128 HBXA        17.1640    -3.9550    -3.7210 hc         1 1O2       0.042200
    129 HBZ         16.6080    -1.1180    -2.7810 hc         1 1O2       0.039700
    130 HBZA        16.8030    -1.6250    -4.4650 hc         1 1O2       0.039700
    131 HCA         19.1000    -2.3990    -3.9630 hc         1 1O2       0.033033
    132 HCAA        18.9040    -1.8850    -2.2820 hc         1 1O2       0.033033
    133 HCAB        18.9100    -0.6820    -3.5790 hc         1 1O2       0.033033
@<TRIPOS>BOND
     1     2     1 1   
     2     3     1 1   
     3     1    10 1   
     4     1    54 1   
     5     2    13 1   
     6     4     3 1   
     7     3     5 1   
     8     3    55 1   
     9     4    56 1   
    10     6     5 1   
    11     5     7 1   
    12     5    57 1   
    13     6    58 1   
    14     7     9 1   
    15     7     8 1   
    16     7    59 1   
    17     8    60 1   
    18    10     9 1   
    19     9    11 1   
    20     9    61 1   
    21    11    12 1   
    22    11    62 1   
    23    11    63 1   
    24    12    64 1   
    25    14    13 1   
    26    13    65 1   
    27    13    66 1   
    28    15    14 1   
    29    14    33 1   
    30    14    67 1   
    31    16    15 1   
    32    18    16 1   
    33    16    17 2   
    34    19    18 1   
    35    18    68 1   
    36    18    69 1   
    37    20    19 1   
    38    19    70 1   
    39    19    71 1   
    40    21    20 1   
    41    20    72 1   
    42    20    73 1   
    43    22    21 1   
    44    21    74 1   
    45    21    75 1   
    46    23    22 1   
    47    22    76 1   
    48    22    77 1   
    49    24    23 1   
    50    23    78 1   
    51    23    79 1   
    52    25    24 1   
    53    24    80 1   
    54    24    81 1   
    55    26    25 1   
    56    25    82 1   
    57    25    83 1   
    58    27    26 1   
    59    26    84 1   
    60    26    85 1   
    61    28    27 1   
    62    27    86 1   
    63    27    87 1   
    64    29    28 1   
    65    28    88 1   
    66    28    89 1   
    67    29    30 1   
    68    29    90 1   
    69    29    91 1   
    70    31    30 1   
    71    30    92 1   
    72    30    93 1   
    73    32    31 1   
    74    31    94 1   
    75    31    95 1   
    76    32    96 1   
    77    32    97 1   
    78    32    98 1   
    79    34    33 1   
    80    33    99 1   
    81    33   100 1   
    82    34    35 1   
    83    37    35 1   
    84    35    36 2   
    85    38    37 1   
    86    37   101 1   
    87    37   102 1   
    88    39    38 1   
    89    38   103 1   
    90    38   104 1   
    91    40    39 1   
    92    39   105 1   
    93    39   106 1   
    94    41    40 1   
    95    40   107 1   
    96    40   108 1   
    97    42    41 1   
    98    41   109 1   
    99    41   110 1   
   100    43    42 1   
   101    42   111 1   
   102    42   112 1   
   103    44    43 1   
   104    43   113 1   
   105    43   114 1   
   106    45    44 2   
   107    44   115 1   
   108    45    46 1   
   109    45   116 1   
   110    47    46 1   
   111    46   117 1   
   112    46   118 1   
   113    47    48 1   
   114    47   119 1   
   115    47   120 1   
   116    48    49 1   
   117    48   121 1   
   118    48   122 1   
   119    49    50 1   
   120    49   123 1   
   121    49   124 1   
   122    50    51 1   
   123    50   125 1   
   124    50   126 1   
   125    51    52 1   
   126    51   127 1   
   127    51   128 1   
   128    52    53 1   
   129    52   129 1   
   130    52   130 1   
   131    53   131 1   
   132    53   132 1   
   133    53   133 1   
@<TRIPOS>SUBSTRUCTURE
     1 1O2         1 TEMP              0 ****  ****    0 ROOT
