@<TRIPOS>MOLECULE
1O2
  133   133     1     0     0
SMALL
bcc


@<TRIPOS>ATOM
      1 C1          -1.5870    -0.1460    -0.1250 c3         1 1O2       0.337900
      2 O1          -1.5270    -1.4350     0.4530 os         1 1O2      -0.434600
      3 C2          -0.1970     0.2030    -0.6890 c3         1 1O2       0.137100
      4 O2           0.0980    -0.7100    -1.7240 oh         1 1O2      -0.583800
      5 C3           0.8310     0.1450     0.4510 c3         1 1O2       0.061100
      6 O3           2.0690     0.5650    -0.1070 oh         1 1O2      -0.612800
      7 C4           0.4060     1.1070     1.5730 c3         1 1O2       0.095100
      8 O4           0.4790     2.4620     1.1630 oh         1 1O2      -0.594800
      9 C5          -1.0320     0.7980     2.0110 c3         1 1O2       0.109100
     10 O5          -1.9530     0.7380     0.9160 os         1 1O2      -0.445600
     11 C6          -1.5770     1.8910     2.9370 c3         1 1O2       0.142400
     12 O6          -2.8530     1.5460     3.4310 oh         1 1O2      -0.599800
     13 CAL         -2.8080    -2.0330     0.6540 c3         1 1O2       0.119400
     14 CAM         -2.5590    -3.2970     1.4800 c3         1 1O2       0.135100
     15 OAN         -2.1030    -4.3230     0.5860 os         1 1O2      -0.436900
     16 CAO         -0.8290    -4.8060     0.7270 c          1 1O2       0.649100
     17 OAP         -0.1010    -4.3460     1.6060 o          1 1O2      -0.540000
     18 CAQ         -0.5210    -5.8770    -0.2780 c3         1 1O2      -0.126400
     19 CAR         -0.6560    -7.2600     0.3290 c3         1 1O2      -0.074400
     20 CAS          0.4500    -7.5550     1.3210 c3         1 1O2      -0.090400
     21 CAT          0.2570    -8.8870     2.0160 c3         1 1O2      -0.079400
     22 CAU          0.6500   -10.0760     1.1630 c3         1 1O2      -0.079400
     23 CAV          2.1490   -10.2850     1.1210 c3         1 1O2      -0.079400
     24 CAW          2.5110   -11.4770     0.2600 c3         1 1O2      -0.079400
     25 CAX          4.0090   -11.6910     0.2220 c3         1 1O2      -0.079400
     26 CAY          4.3720   -12.8820    -0.6390 c3         1 1O2      -0.079400
     27 CAZ          5.8700   -13.0960    -0.6770 c3         1 1O2      -0.079400
     28 CBA          6.2310   -14.2910    -1.5350 c3         1 1O2      -0.078400
     29 CBB          7.7260   -14.5280    -1.5930 c3         1 1O2      -0.077400
     30 CBC          8.4480   -13.5980    -2.5470 c3         1 1O2      -0.079400
     31 CBD          8.3020   -14.0250    -3.9930 c3         1 1O2      -0.080400
     32 CBE          9.0260   -13.0840    -4.9210 c3         1 1O2      -0.093100
     33 CBF         -3.8800    -3.7880     2.0780 c3         1 1O2       0.126400
     34 OBG         -3.5250    -4.7220     3.1060 os         1 1O2      -0.438900
     35 CBH         -4.4700    -5.6420     3.4730 c          1 1O2       0.637100
     36 OBI         -5.5860    -5.5740     2.9570 o          1 1O2      -0.541000
     37 CBJ         -3.9600    -6.6150     4.4930 c3         1 1O2      -0.125400
     38 CBK         -3.2970    -7.8050     3.8270 c3         1 1O2      -0.076400
     39 CBL         -4.3040    -8.7090     3.1480 c3         1 1O2      -0.090400
     40 CBM         -3.6120    -9.7660     2.3140 c3         1 1O2      -0.078400
     41 CBN         -4.6140   -10.7130     1.6900 c3         1 1O2      -0.080400
     42 CBO         -3.9260   -11.7620     0.8440 c3         1 1O2      -0.074400
     43 CBP         -4.9180   -12.7100     0.1980 c3         1 1O2      -0.047200
     44 CBQ         -5.7570   -12.0440    -0.8280 c2         1 1O2      -0.172200
     45 CBR         -7.0470   -12.3300    -1.0230 c2         1 1O2      -0.171200
     46 CBS         -7.8880   -11.6680    -2.0500 c3         1 1O2      -0.049200
     47 CBT         -8.7380   -12.6730    -2.8040 c3         1 1O2      -0.074400
     48 CBU         -9.6000   -12.0180    -3.8620 c3         1 1O2      -0.079400
     49 CBV        -10.7970   -11.3020    -3.2730 c3         1 1O2      -0.080400
     50 CBW        -11.6630   -10.6970    -4.3580 c3         1 1O2      -0.077400
     51 CBX        -12.8430    -9.9300    -3.7920 c3         1 1O2      -0.077400
     52 CBZ        -12.6570    -8.4270    -3.8230 c3         1 1O2      -0.078400
     53 CCA        -11.5760    -7.9480    -2.8900 c3         1 1O2      -0.093100
     54 H1          -2.3920    -0.0480    -0.9030 h2         1 1O2       0.094700
     55 H2          -0.2360     1.2520    -1.1010 h1         1 1O2       0.069700
     56 HO2          1.0310    -0.5800    -1.9420 ho         1 1O2       0.422000
     57 H3           0.9020    -0.9060     0.8450 h1         1 1O2       0.089700
     58 HO3          2.7590     0.3100     0.5170 ho         1 1O2       0.415000
     59 H4           1.0910     0.9710     2.4590 h1         1 1O2       0.046700
     60 HO4          1.2380     2.5390     0.5670 ho         1 1O2       0.418000
     61 H5          -1.0380    -0.2030     2.5280 h1         1 1O2       0.070700
     62 H6          -0.9210     1.9780     3.8420 h1         1 1O2       0.064700
     63 H6A         -1.6120     2.8690     2.3880 h1         1 1O2       0.064700
     64 HO6         -3.4390     1.4670     2.6670 ho         1 1O2       0.410000
     65 HAL         -3.2600    -2.2860    -0.3410 h1         1 1O2       0.052200
     66 HALA        -3.4730    -1.3240     1.2150 h1         1 1O2       0.052200
     67 HAM         -1.8000    -3.1020     2.2870 h1         1 1O2       0.111700
     68 HAQ          0.5270    -5.7100    -0.6420 hc         1 1O2       0.078200
     69 HAQA        -1.2210    -5.7770    -1.1490 hc         1 1O2       0.078200
     70 HAR         -1.6550    -7.3530     0.8330 hc         1 1O2       0.051200
     71 HARA        -0.6290    -8.0130    -0.5020 hc         1 1O2       0.051200
     72 HAS          0.4750    -6.7360     2.0910 hc         1 1O2       0.053200
     73 HASA         1.4400    -7.5420     0.7940 hc         1 1O2       0.053200
     74 HAT          0.8660    -8.8940     2.9590 hc         1 1O2       0.041200
     75 HATA        -0.8210    -8.9940     2.3180 hc         1 1O2       0.041200
     76 HAU          0.2600    -9.9400     0.1200 hc         1 1O2       0.038700
     77 HAUA         0.1640   -10.9990     1.5790 hc         1 1O2       0.038700
     78 HAV          2.6500    -9.3660     0.7190 hc         1 1O2       0.040700
     79 HAVA         2.5360   -10.4430     2.1620 hc         1 1O2       0.040700
     80 HAW          2.0100   -12.3970     0.6610 hc         1 1O2       0.039200
     81 HAWA         2.1270   -11.3190    -0.7820 hc         1 1O2       0.039200
     82 HAX          4.5100   -10.7710    -0.1790 hc         1 1O2       0.039700
     83 HAXA         4.3930   -11.8490     1.2640 hc         1 1O2       0.039700
     84 HAY          3.9880   -12.7240    -1.6810 hc         1 1O2       0.039700
     85 HAYA         3.8700   -13.8020    -0.2390 hc         1 1O2       0.039700
     86 HAZ          6.3700   -12.1760    -1.0790 hc         1 1O2       0.039700
     87 HAZA         6.2530   -13.2520     0.3650 hc         1 1O2       0.039700
     88 HBA          5.8290   -14.1430    -2.5720 hc         1 1O2       0.039700
     89 HBAA         5.7330   -15.2050    -1.1140 hc         1 1O2       0.039700
     90 HBB          7.9140   -15.5910    -1.9040 hc         1 1O2       0.038700
     91 HBBA         8.1580   -14.4040    -0.5650 hc         1 1O2       0.038700
     92 HBC          8.0600   -12.5530    -2.4240 hc         1 1O2       0.039700
     93 HBCA         9.5380   -13.5790    -2.2820 hc         1 1O2       0.039700
     94 HBD          8.7080   -15.0630    -4.1190 hc         1 1O2       0.038200
     95 HBDA         7.2150   -14.0610    -4.2670 hc         1 1O2       0.038200
     96 HBE          8.9100   -13.4170    -5.9800 hc         1 1O2       0.032367
     97 HBEA         8.6170   -12.0480    -4.8300 hc         1 1O2       0.032367
     98 HBEB        10.1160   -13.0520    -4.6790 hc         1 1O2       0.032367
     99 HBF         -4.5190    -4.2850     1.3030 h1         1 1O2       0.069200
    100 HBFA        -4.4390    -2.9430     2.5580 h1         1 1O2       0.069200
    101 HBJ         -4.8310    -6.9500     5.1160 hc         1 1O2       0.079200
    102 HBJA        -3.2210    -6.0930     5.1560 hc         1 1O2       0.079200
    103 HBK         -2.7390    -8.3860     4.6090 hc         1 1O2       0.053200
    104 HBKA        -2.5420    -7.4430     3.0790 hc         1 1O2       0.053200
    105 HBL         -4.9820    -8.0940     2.4960 hc         1 1O2       0.051700
    106 HBLA        -4.9500    -9.2010     3.9220 hc         1 1O2       0.051700
    107 HBM         -3.0070    -9.2700     1.5080 hc         1 1O2       0.038200
    108 HBMA        -2.8940   -10.3430     2.9550 hc         1 1O2       0.038200
    109 HBN         -5.3350   -10.1350     1.0530 hc         1 1O2       0.045700
    110 HBNA        -5.2120   -11.2120     2.4970 hc         1 1O2       0.045700
    111 HBO         -3.2210   -12.3550     1.4850 hc         1 1O2       0.038200
    112 HBOA        -3.3130   -11.2610     0.0490 hc         1 1O2       0.038200
    113 HBP         -4.3490   -13.5450    -0.2970 hc         1 1O2       0.045700
    114 HBPA        -5.5610   -13.1750     0.9930 hc         1 1O2       0.045700
    115 HBQ         -5.2390   -11.2920    -1.4450 ha         1 1O2       0.120000
    116 HBR         -7.5660   -13.0820    -0.4050 ha         1 1O2       0.119000
    117 HBS         -7.2510   -11.0970    -2.7780 hc         1 1O2       0.046700
    118 HBSA        -8.5560   -10.9210    -1.5400 hc         1 1O2       0.046700
    119 HBT         -8.0650   -13.4250    -3.2950 hc         1 1O2       0.040700
    120 HBTA        -9.3880   -13.2330    -2.0800 hc         1 1O2       0.040700
    121 HBU         -9.9600   -12.8060    -4.5760 hc         1 1O2       0.039200
    122 HBUA        -8.9830   -11.2920    -4.4550 hc         1 1O2       0.039200
    123 HBV        -11.4050   -12.0240    -2.6670 hc         1 1O2       0.041200
    124 HBVA       -10.4530   -10.4930    -2.5750 hc         1 1O2       0.041200
    125 HBW        -12.0400   -11.5200    -5.0220 hc         1 1O2       0.038700
    126 HBWA       -11.0380   -10.0210    -5.0000 hc         1 1O2       0.038700
    127 HBX        -13.0420   -10.2560    -2.7370 hc         1 1O2       0.038700
    128 HBXA       -13.7600   -10.1810    -4.3900 hc         1 1O2       0.038700
    129 HBZ        -13.6290    -7.9400    -3.5410 hc         1 1O2       0.036700
    130 HBZA       -12.4180    -8.1010    -4.8700 hc         1 1O2       0.036700
    131 HCA        -11.7740    -8.2900    -1.8450 hc         1 1O2       0.033033
    132 HCAA       -11.5260    -6.8320    -2.8930 hc         1 1O2       0.033033
    133 HCAB       -10.5800    -8.3460    -3.2040 hc         1 1O2       0.033033
@<TRIPOS>BOND
     1     1     2 1   
     2     1     3 1   
     3     1    10 1   
     4     1    54 1   
     5     2    13 1   
     6     3     4 1   
     7     3     5 1   
     8     3    55 1   
     9     4    56 1   
    10     5     6 1   
    11     5     7 1   
    12     5    57 1   
    13     6    58 1   
    14     7     8 1   
    15     7     9 1   
    16     7    59 1   
    17     8    60 1   
    18     9    10 1   
    19     9    11 1   
    20     9    61 1   
    21    11    12 1   
    22    11    62 1   
    23    11    63 1   
    24    12    64 1   
    25    13    14 1   
    26    13    65 1   
    27    13    66 1   
    28    14    15 1   
    29    14    33 1   
    30    14    67 1   
    31    15    16 1   
    32    16    17 2   
    33    16    18 1   
    34    18    19 1   
    35    18    68 1   
    36    18    69 1   
    37    19    20 1   
    38    19    70 1   
    39    19    71 1   
    40    20    21 1   
    41    20    72 1   
    42    20    73 1   
    43    21    22 1   
    44    21    74 1   
    45    21    75 1   
    46    22    23 1   
    47    22    76 1   
    48    22    77 1   
    49    23    24 1   
    50    23    78 1   
    51    23    79 1   
    52    24    25 1   
    53    24    80 1   
    54    24    81 1   
    55    25    26 1   
    56    25    82 1   
    57    25    83 1   
    58    26    27 1   
    59    26    84 1   
    60    26    85 1   
    61    27    28 1   
    62    27    86 1   
    63    27    87 1   
    64    28    29 1   
    65    28    88 1   
    66    28    89 1   
    67    29    30 1   
    68    29    90 1   
    69    29    91 1   
    70    30    31 1   
    71    30    92 1   
    72    30    93 1   
    73    31    32 1   
    74    31    94 1   
    75    31    95 1   
    76    32    96 1   
    77    32    97 1   
    78    32    98 1   
    79    33    34 1   
    80    33    99 1   
    81    33   100 1   
    82    34    35 1   
    83    35    36 2   
    84    35    37 1   
    85    37    38 1   
    86    37   101 1   
    87    37   102 1   
    88    38    39 1   
    89    38   103 1   
    90    38   104 1   
    91    39    40 1   
    92    39   105 1   
    93    39   106 1   
    94    40    41 1   
    95    40   107 1   
    96    40   108 1   
    97    41    42 1   
    98    41   109 1   
    99    41   110 1   
   100    42    43 1   
   101    42   111 1   
   102    42   112 1   
   103    43    44 1   
   104    43   113 1   
   105    43   114 1   
   106    44    45 2   
   107    44   115 1   
   108    45    46 1   
   109    45   116 1   
   110    46    47 1   
   111    46   117 1   
   112    46   118 1   
   113    47    48 1   
   114    47   119 1   
   115    47   120 1   
   116    48    49 1   
   117    48   121 1   
   118    48   122 1   
   119    49    50 1   
   120    49   123 1   
   121    49   124 1   
   122    50    51 1   
   123    50   125 1   
   124    50   126 1   
   125    51    52 1   
   126    51   127 1   
   127    51   128 1   
   128    52    53 1   
   129    52   129 1   
   130    52   130 1   
   131    53   131 1   
   132    53   132 1   
   133    53   133 1   
@<TRIPOS>SUBSTRUCTURE
     1 1O2         1 TEMP              0 ****  ****    0 ROOT
