@<TRIPOS>MOLECULE
1O2
  133   133     1     0     0
SMALL
bcc


@<TRIPOS>ATOM
      1 C1         -0.3890   -0.4090   -0.0810 c3        1 1O2      0.338900
      2 O1         -0.6740   -1.6920    0.4380 os        1 1O2     -0.425600
      3 C2          1.1130   -0.1190    0.1090 c3        1 1O2      0.135100
      4 O2          1.8460   -1.0790   -0.6230 oh        1 1O2     -0.586800
      5 C3          1.4540   -0.1680    1.6060 c3        1 1O2      0.062100
      6 O3          2.8210    0.2080    1.7130 oh        1 1O2     -0.613800
      7 C4          0.5680    0.8280    2.3700 c3        1 1O2      0.095100
      8 O4          0.8720    2.1720    2.0410 oh        1 1O2     -0.593800
      9 C5         -0.9100    0.5620    2.0530 c3        1 1O2      0.100100
     10 O5         -1.1780    0.5110    0.6470 os        1 1O2     -0.441600
     11 C6         -1.7980    1.6860    2.5960 c3        1 1O2      0.142400
     12 O6         -3.1550    1.2930    2.6120 oh        1 1O2     -0.609800
     13 CAL        -1.9200   -2.2300   -0.0050 c3        1 1O2      0.128400
     14 CAM        -2.5190   -3.1000    1.1010 c3        1 1O2      0.122100
     15 OAN        -2.4550   -2.3260    2.3080 os        1 1O2     -0.433900
     16 CAO        -3.4220   -2.5380    3.2570 c         1 1O2      0.634100
     17 OAP        -4.2420   -3.4380    3.0670 o         1 1O2     -0.549000
     18 CAQ        -3.2970   -1.5830    4.4010 c3        1 1O2     -0.138400
     19 CAR        -4.3750   -1.8190    5.4360 c3        1 1O2     -0.075400
     20 CAS        -4.2500   -0.8310    6.5760 c3        1 1O2     -0.079400
     21 CAT        -5.3290   -1.0590    7.6140 c3        1 1O2     -0.078400
     22 CAU        -5.2100   -0.0710    8.7540 c3        1 1O2     -0.079400
     23 CAV        -6.2910   -0.2970    9.7900 c3        1 1O2     -0.079400
     24 CAW        -6.1740    0.6920   10.9300 c3        1 1O2     -0.078400
     25 CAX        -7.2570    0.4680   11.9630 c3        1 1O2     -0.079400
     26 CAY        -7.1430    1.4580   13.1030 c3        1 1O2     -0.078400
     27 CAZ        -8.2270    1.2350   14.1350 c3        1 1O2     -0.079400
     28 CBA        -8.1130    2.2240   15.2750 c3        1 1O2     -0.078400
     29 CBB        -9.1980    2.0030   16.3060 c3        1 1O2     -0.079400
     30 CBC        -9.0850    2.9920   17.4450 c3        1 1O2     -0.079400
     31 CBD       -10.1710    2.7720   18.4770 c3        1 1O2     -0.080400
     32 CBE       -10.0610    3.7550   19.6140 c3        1 1O2     -0.092100
     33 CBF        -1.8390   -4.4550    1.2910 c3        1 1O2      0.117400
     34 OBG        -0.4170   -4.3600    1.3430 os        1 1O2     -0.426900
     35 CBH         0.2880   -4.5590    0.1840 c         1 1O2      0.648100
     36 OBI        -0.3290   -4.8780   -0.8350 o         1 1O2     -0.558000
     37 CBJ         1.7550   -4.3280    0.3640 c3        1 1O2     -0.133400
     38 CBK         2.5680   -5.2500   -0.5180 c3        1 1O2     -0.078400
     39 CBL         4.0390   -4.8970   -0.4510 c3        1 1O2     -0.077400
     40 CBM         4.8610   -5.8270   -1.3190 c3        1 1O2     -0.079400
     41 CBN         6.3300   -5.4690   -1.2670 c3        1 1O2     -0.079400
     42 CBO         7.1520   -6.4020   -2.1310 c3        1 1O2     -0.077400
     43 CBP         8.6210   -6.0370   -2.0850 c3        1 1O2     -0.048200
     44 CBQ         9.4490   -6.9360   -2.9230 c2        1 1O2     -0.174200
     45 CBR        10.7620   -6.7710   -3.1170 c2        1 1O2     -0.173200
     46 CBS        11.5500   -5.6660   -2.5210 c3        1 1O2     -0.049200
     47 CBT        13.0240   -5.7670   -2.8540 c3        1 1O2     -0.077400
     48 CBU        13.8030   -4.6260   -2.2350 c3        1 1O2     -0.079400
     49 CBV        15.2760   -4.7230   -2.5680 c3        1 1O2     -0.079400
     50 CBW        16.0560   -3.5830   -1.9500 c3        1 1O2     -0.079400
     51 CBX        17.5290   -3.6790   -2.2840 c3        1 1O2     -0.079400
     52 CBZ        18.3110   -2.5390   -1.6670 c3        1 1O2     -0.080400
     53 CCA        19.7780   -2.6310   -1.9980 c3        1 1O2     -0.092100
     54 H1         -0.7000   -0.2880   -1.1540 h2        1 1O2      0.093700
     55 H2          1.3230    0.9160   -0.2850 h1        1 1O2      0.070700
     56 HO2         2.7790   -0.8900   -0.4530 ho        1 1O2      0.420000
     57 H3          1.2930   -1.2110    1.9950 h1        1 1O2      0.085700
     58 HO3         3.0980    0.0040    2.6140 ho        1 1O2      0.414000
     59 H4          0.7310    0.6940    3.4780 h1        1 1O2      0.043700
     60 HO4         1.8250    2.2190    1.8740 ho        1 1O2      0.416000
     61 H5         -1.2030   -0.4310    2.5020 h1        1 1O2      0.090700
     62 H6         -1.6570    2.6130    1.9810 h1        1 1O2      0.065200
     63 H6A        -1.5360    1.8900    3.6670 h1        1 1O2      0.065200
     64 HO6        -3.4010    1.0950    1.6990 ho        1 1O2      0.413000
     65 HAL        -1.7160   -2.8730   -0.9040 h1        1 1O2      0.061200
     66 HALA       -2.6370   -1.4050   -0.2580 h1        1 1O2      0.061200
     67 HAM        -3.6010   -3.3020    0.8450 h1        1 1O2      0.080700
     68 HAQ        -3.3590   -0.5350    3.9900 hc        1 1O2      0.090200
     69 HAQA       -2.2780   -1.7060    4.8560 hc        1 1O2      0.090200
     70 HAR        -4.3000   -2.8680    5.8260 hc        1 1O2      0.056200
     71 HARA       -5.3840   -1.7220    4.9540 hc        1 1O2      0.056200
     72 HAS        -4.3250    0.2150    6.1780 hc        1 1O2      0.041700
     73 HASA       -3.2400   -0.9330    7.0550 hc        1 1O2      0.041700
     74 HAT        -5.2530   -2.1060    8.0120 hc        1 1O2      0.042700
     75 HATA       -6.3380   -0.9610    7.1340 hc        1 1O2      0.042700
     76 HAU        -5.2830    0.9750    8.3550 hc        1 1O2      0.039700
     77 HAUA       -4.2010   -0.1720    9.2360 hc        1 1O2      0.039700
     78 HAV        -7.2990   -0.1980    9.3080 hc        1 1O2      0.040200
     79 HAVA       -6.2170   -1.3430   10.1890 hc        1 1O2      0.040200
     80 HAW        -5.1670    0.5920   11.4130 hc        1 1O2      0.039200
     81 HAWA       -6.2470    1.7380   10.5300 hc        1 1O2      0.039200
     82 HAX        -8.2650    0.5670   11.4790 hc        1 1O2      0.039700
     83 HAXA       -7.1850   -0.5770   12.3640 hc        1 1O2      0.039700
     84 HAY        -7.2140    2.5030   12.7020 hc        1 1O2      0.039200
     85 HAYA       -6.1360    1.3580   13.5880 hc        1 1O2      0.039200
     86 HAZ        -8.1560    0.1900   14.5360 hc        1 1O2      0.039700
     87 HAZA       -9.2340    1.3350   13.6500 hc        1 1O2      0.039700
     88 HBA        -7.1070    2.1240   15.7610 hc        1 1O2      0.039700
     89 HBAA       -8.1830    3.2700   14.8730 hc        1 1O2      0.039700
     90 HBB       -10.2050    2.1030   15.8200 hc        1 1O2      0.039700
     91 HBBA       -9.1280    0.9570   16.7070 hc        1 1O2      0.039700
     92 HBC        -8.0790    2.8920   17.9320 hc        1 1O2      0.039700
     93 HBCA       -9.1550    4.0380   17.0440 hc        1 1O2      0.039700
     94 HBD       -10.1000    1.7260   18.8760 hc        1 1O2      0.038700
     95 HBDA      -11.1760    2.8710   17.9880 hc        1 1O2      0.038700
     96 HBE        -9.0750    3.6540   20.1290 hc        1 1O2      0.032700
     97 HBEA      -10.8700    3.5750   20.3620 hc        1 1O2      0.032700
     98 HBEB      -10.1540    4.8030   19.2390 hc        1 1O2      0.032700
     99 HBF        -2.1180   -4.8740    2.2970 h1        1 1O2      0.080200
    100 HBFA       -2.1610   -5.1490    0.4710 h1        1 1O2      0.080200
    101 HBJ         1.9410   -3.2490    0.0920 hc        1 1O2      0.086200
    102 HBJA        2.0300   -4.4650    1.4420 hc        1 1O2      0.086200
    103 HBK         2.2020   -5.1710   -1.5770 hc        1 1O2      0.056700
    104 HBKA        2.4180   -6.3130   -0.1940 hc        1 1O2      0.056700
    105 HBL         4.1870   -3.8380   -0.7890 hc        1 1O2      0.038700
    106 HBLA        4.3950   -4.9600    0.6110 hc        1 1O2      0.038700
    107 HBM         4.4970   -5.7710   -2.3790 hc        1 1O2      0.043200
    108 HBMA        4.7180   -6.8850   -0.9760 hc        1 1O2      0.043200
    109 HBN         6.6940   -5.5210   -0.2060 hc        1 1O2      0.039200
    110 HBNA        6.4730   -4.4120   -1.6140 hc        1 1O2      0.039200
    111 HBO         7.0150   -7.4580   -1.7800 hc        1 1O2      0.042200
    112 HBOA        6.7850   -6.3540   -3.1900 hc        1 1O2      0.042200
    113 HBP         8.9870   -6.0800   -1.0220 hc        1 1O2      0.046700
    114 HBPA        8.7560   -4.9740   -2.4290 hc        1 1O2      0.046700
    115 HBQ         8.9190   -7.7790   -3.3970 ha        1 1O2      0.122000
    116 HBR        11.3240   -7.4770   -3.7510 ha        1 1O2      0.122000
    117 HBS        11.1480   -4.6820   -2.8900 hc        1 1O2      0.047200
    118 HBSA       11.4150   -5.6700   -1.4050 hc        1 1O2      0.047200
    119 HBT        13.1600   -5.7540   -3.9680 hc        1 1O2      0.041700
    120 HBTA       13.4280   -6.7450   -2.4820 hc        1 1O2      0.041700
    121 HBU        13.3970   -3.6480   -2.6050 hc        1 1O2      0.039700
    122 HBUA       13.6680   -4.6390   -1.1210 hc        1 1O2      0.039700
    123 HBV        15.6820   -5.7010   -2.1970 hc        1 1O2      0.039700
    124 HBVA       15.4110   -4.7110   -3.6820 hc        1 1O2      0.039700
    125 HBW        15.6500   -2.6050   -2.3200 hc        1 1O2      0.039200
    126 HBWA       15.9220   -3.5960   -0.8360 hc        1 1O2      0.039200
    127 HBX        17.9360   -4.6570   -1.9140 hc        1 1O2      0.039700
    128 HBXA       17.6640   -3.6670   -3.3980 hc        1 1O2      0.039700
    129 HBZ        17.9010   -1.5620   -2.0370 hc        1 1O2      0.038200
    130 HBZA       18.1740   -2.5530   -0.5530 hc        1 1O2      0.038200
    131 HCA        19.9360   -2.5940   -3.1030 hc        1 1O2      0.032700
    132 HCAA       20.2090   -3.5870   -1.6150 hc        1 1O2      0.032700
    133 HCAB       20.3340   -1.7820   -1.5330 hc        1 1O2      0.032700
@<TRIPOS>BOND
     1    1    2 1   
     2    1    3 1   
     3    1   10 1   
     4    1   54 1   
     5    2   13 1   
     6    3    4 1   
     7    3    5 1   
     8    3   55 1   
     9    4   56 1   
    10    5    6 1   
    11    5    7 1   
    12    5   57 1   
    13    6   58 1   
    14    7    8 1   
    15    7    9 1   
    16    7   59 1   
    17    8   60 1   
    18    9   10 1   
    19    9   11 1   
    20    9   61 1   
    21   11   12 1   
    22   11   62 1   
    23   11   63 1   
    24   12   64 1   
    25   13   14 1   
    26   13   65 1   
    27   13   66 1   
    28   14   15 1   
    29   14   33 1   
    30   14   67 1   
    31   15   16 1   
    32   16   17 2   
    33   16   18 1   
    34   18   19 1   
    35   18   68 1   
    36   18   69 1   
    37   19   20 1   
    38   19   70 1   
    39   19   71 1   
    40   20   21 1   
    41   20   72 1   
    42   20   73 1   
    43   21   22 1   
    44   21   74 1   
    45   21   75 1   
    46   22   23 1   
    47   22   76 1   
    48   22   77 1   
    49   23   24 1   
    50   23   78 1   
    51   23   79 1   
    52   24   25 1   
    53   24   80 1   
    54   24   81 1   
    55   25   26 1   
    56   25   82 1   
    57   25   83 1   
    58   26   27 1   
    59   26   84 1   
    60   26   85 1   
    61   27   28 1   
    62   27   86 1   
    63   27   87 1   
    64   28   29 1   
    65   28   88 1   
    66   28   89 1   
    67   29   30 1   
    68   29   90 1   
    69   29   91 1   
    70   30   31 1   
    71   30   92 1   
    72   30   93 1   
    73   31   32 1   
    74   31   94 1   
    75   31   95 1   
    76   32   96 1   
    77   32   97 1   
    78   32   98 1   
    79   33   34 1   
    80   33   99 1   
    81   33  100 1   
    82   34   35 1   
    83   35   36 2   
    84   35   37 1   
    85   37   38 1   
    86   37  101 1   
    87   37  102 1   
    88   38   39 1   
    89   38  103 1   
    90   38  104 1   
    91   39   40 1   
    92   39  105 1   
    93   39  106 1   
    94   40   41 1   
    95   40  107 1   
    96   40  108 1   
    97   41   42 1   
    98   41  109 1   
    99   41  110 1   
   100   42   43 1   
   101   42  111 1   
   102   42  112 1   
   103   43   44 1   
   104   43  113 1   
   105   43  114 1   
   106   44   45 2   
   107   44  115 1   
   108   45   46 1   
   109   45  116 1   
   110   46   47 1   
   111   46  117 1   
   112   46  118 1   
   113   47   48 1   
   114   47  119 1   
   115   47  120 1   
   116   48   49 1   
   117   48  121 1   
   118   48  122 1   
   119   49   50 1   
   120   49  123 1   
   121   49  124 1   
   122   50   51 1   
   123   50  125 1   
   124   50  126 1   
   125   51   52 1   
   126   51  127 1   
   127   51  128 1   
   128   52   53 1   
   129   52  129 1   
   130   52  130 1   
   131   53  131 1   
   132   53  132 1   
   133   53  133 1   
@<TRIPOS>SUBSTRUCTURE
     1 1O2         1 TEMP              0 ****  ****    0 ROOT
