@<TRIPOS>MOLECULE
1O3
   40    42     1     0     0
SMALL
bcc


@<TRIPOS>ATOM
      1 C1           0.0910    -0.0310    -0.1510 ca         1 1O3       0.261900
      2 C2           1.4760     0.2430    -0.1020 ca         1 1O3      -0.172000
      3 C3           2.0300     0.7490     1.0680 ca         1 1O3       0.049100
      4 C4           1.2250     0.9810     2.1890 ca         1 1O3      -0.160000
      5 C5          -0.1350     0.7000     2.1270 ca         1 1O3      -0.009000
      6 C6          -0.7360     0.1960     0.9670 ca         1 1O3      -0.373500
      7 S7          -2.4310    -0.1030     0.9880 sy         1 1O3       1.497200
      8 O8          -3.0020     0.6040    -0.0950 o          1 1O3      -0.663300
      9 O9          -2.9030     0.3110     2.2600 o          1 1O3      -0.663300
     10 N10         -2.5350    -1.6760     0.7490 nu         1 1O3      -0.786500
     11 C11         -2.4220    -2.7120     1.6960 ca         1 1O3       0.171600
     12 C12         -1.7850    -3.9310     1.3500 ca         1 1O3      -0.142600
     13 C13         -1.7190    -4.9600     2.2910 ca         1 1O3      -0.099000
     14 C14         -2.2620    -4.7850     3.5650 ca         1 1O3       0.034100
     15 C15         -2.8810    -3.5840     3.9250 ca         1 1O3      -0.125000
     16 C16         -2.9680    -2.5580     2.9920 ca         1 1O3      -0.186000
     17 C17         -1.1450    -4.1950    -0.0110 c          1 1O3       0.911200
     18 O18         -1.5800    -3.5750    -1.0260 o          1 1O3      -0.816300
     19 O19         -0.2080    -5.0360    -0.0510 o          1 1O3      -0.816300
     20 O20         -2.3220    -5.8410     4.4820 os         1 1O3      -0.256200
     21 C21         -1.1290    -6.2190     5.0750 ca         1 1O3       0.136100
     22 C22          0.1290    -5.7090     4.7300 ca         1 1O3      -0.175000
     23 C23          1.2570    -6.1780     5.3990 ca         1 1O3      -0.104500
     24 C24          1.1390    -7.1430     6.4000 ca         1 1O3      -0.178000
     25 C25         -0.1180    -7.6470     6.7350 ca         1 1O3      -0.104500
     26 C26         -1.2590    -7.1940     6.0820 ca         1 1O3      -0.175000
     27 F27         -0.4280    -0.5110    -1.2990 f          1 1O3      -0.098900
     28 Br1          3.8670     1.1240     1.1450 br         1 1O3      -0.097100
     29 H1           2.0890     0.0350    -0.9920 ha         1 1O3       0.166000
     30 H2           1.6600     1.3760     3.1190 ha         1 1O3       0.146000
     31 H3          -0.7670     0.8790     3.0170 ha         1 1O3       0.168000
     32 H4          -2.4690    -2.0520    -0.1990 hn         1 1O3       0.523800
     33 H5          -1.2130    -5.8990     2.0090 ha         1 1O3       0.172000
     34 H6          -3.3070    -3.4610     4.9300 ha         1 1O3       0.132000
     35 H7          -3.4660    -1.6180     3.2850 ha         1 1O3       0.156000
     36 H9           0.2230    -4.9570     3.9310 ha         1 1O3       0.153000
     37 H10          2.2480    -5.7850     5.1280 ha         1 1O3       0.124000
     38 H11          2.0350    -7.5080     6.9210 ha         1 1O3       0.120000
     39 H12         -0.2110    -8.4110     7.5210 ha         1 1O3       0.124000
     40 H13         -2.2540    -7.5840     6.3320 ha         1 1O3       0.153000
@<TRIPOS>BOND
     1     1     2 ar  
     2     1     6 ar  
     3     1    27 1   
     4     2     3 ar  
     5     2    29 1   
     6     3     4 ar  
     7     3    28 1   
     8     4     5 ar  
     9     4    30 1   
    10     5     6 ar  
    11     5    31 1   
    12     6     7 1   
    13     7     8 2   
    14     7     9 2   
    15     7    10 1   
    16    10    11 1   
    17    10    32 1   
    18    11    12 ar  
    19    11    16 ar  
    20    12    13 ar  
    21    12    17 1   
    22    13    14 ar  
    23    13    33 1   
    24    14    15 ar  
    25    14    20 1   
    26    15    16 ar  
    27    15    34 1   
    28    16    35 1   
    29    17    18 1   
    30    17    19 1   
    31    20    21 1   
    32    21    22 ar  
    33    21    26 ar  
    34    22    23 ar  
    35    22    36 1   
    36    23    24 ar  
    37    23    37 1   
    38    24    25 ar  
    39    24    38 1   
    40    25    26 ar  
    41    25    39 1   
    42    26    40 1   
@<TRIPOS>SUBSTRUCTURE
     1 1O3         1 TEMP              0 ****  ****    0 ROOT
