@<TRIPOS>MOLECULE
1O3
   40    42     1     0     0
SMALL
bcc


@<TRIPOS>ATOM
      1 C1           0.0000     0.0000     0.0000 ca         1 1O3       0.231900
      2 C2           1.3840     0.0000     0.0000 ca         1 1O3      -0.143000
      3 C3           2.0740     0.0000     1.1990 ca         1 1O3       0.113100
      4 C4           1.3820    -0.0000     2.3960 ca         1 1O3      -0.136000
      5 C5          -0.0010    -0.0000     2.3960 ca         1 1O3       0.048000
      6 C6          -0.6930     0.0060     1.1990 ca         1 1O3      -0.151500
      7 S7          -2.4540     0.0130     1.2000 sy         1 1O3       1.032200
      8 O8          -2.8590    -1.0090     0.2990 o          1 1O3      -0.606800
      9 O9          -2.8550     0.0520     2.5620 o          1 1O3      -0.606800
     10 N10         -2.9380     1.4470     0.5270 nu         1 1O3      -0.344500
     11 C11         -2.6820     1.7080    -0.8150 ca         1 1O3       0.051600
     12 C12         -1.8000     2.7370    -1.1760 ca         1 1O3      -0.112600
     13 C13         -1.5450     2.9870    -2.5280 ca         1 1O3      -0.062000
     14 C14         -2.1620     2.2200    -3.4970 ca         1 1O3       0.051100
     15 C15         -3.0350     1.2000    -3.1330 ca         1 1O3      -0.139000
     16 C16         -3.2940     0.9450    -1.8020 ca         1 1O3      -0.113000
     17 C17         -1.1460     3.5510    -0.1370 c          1 1O3       0.974200
     18 O18         -0.3000     4.5400    -0.4870 o          1 1O3      -0.880800
     19 O19         -1.3710     3.3320     1.0370 o          1 1O3      -0.880800
     20 O20         -1.9160     2.4620    -4.8120 os         1 1O3      -0.219200
     21 C21         -2.8570     3.1360    -5.5250 ca         1 1O3       0.165100
     22 C22         -2.6130     3.4810    -6.8470 ca         1 1O3      -0.174000
     23 C23         -3.5710     4.1660    -7.5680 ca         1 1O3      -0.067500
     24 C24         -4.7720     4.5070    -6.9740 ca         1 1O3      -0.163000
     25 C25         -5.0180     4.1650    -5.6570 ca         1 1O3      -0.067500
     26 C26         -4.0650     3.4750    -4.9320 ca         1 1O3      -0.174000
     27 F27         -0.6750    -0.0000    -1.1710 f          1 1O3      -0.115900
     28 Br1          3.9660     0.0000     1.2020 br         1 1O3      -0.153100
     29 H1           1.9270    -0.0020    -0.9380 ha         1 1O3       0.132000
     30 H2           1.9230    -0.0030     3.3340 ha         1 1O3       0.115000
     31 H3          -0.5430     0.0020     3.3340 ha         1 1O3       0.130000
     32 H4          -3.4250     2.1220     1.0840 hn         1 1O3       0.366800
     33 H5          -0.8120     3.7320    -2.8130 ha         1 1O3       0.143000
     34 H6          -3.5090     0.5980    -3.8980 ha         1 1O3       0.102000
     35 H7          -3.9840     0.1570    -1.5260 ha         1 1O3       0.123000
     36 H9          -1.6720     3.2130    -7.3120 ha         1 1O3       0.125000
     37 H10         -3.3820     4.4360    -8.5990 ha         1 1O3       0.093500
     38 H11         -5.5220     5.0460    -7.5410 ha         1 1O3       0.094000
     39 H12         -5.9610     4.4320    -5.1960 ha         1 1O3       0.093500
     40 H13         -4.2580     3.2070    -3.9010 ha         1 1O3       0.125000
@<TRIPOS>BOND
     1     1     2 ar  
     2     1     6 ar  
     3     1    27 1   
     4     2     3 ar  
     5     2    29 1   
     6     3     4 ar  
     7     3    28 1   
     8     4     5 ar  
     9     4    30 1   
    10     5     6 ar  
    11     5    31 1   
    12     6     7 1   
    13     7     8 2   
    14     7     9 2   
    15     7    10 1   
    16    10    11 1   
    17    10    32 1   
    18    11    12 ar  
    19    11    16 ar  
    20    12    13 ar  
    21    12    17 1   
    22    13    14 ar  
    23    13    33 1   
    24    14    15 ar  
    25    14    20 1   
    26    15    16 ar  
    27    15    34 1   
    28    16    35 1   
    29    17    18 1   
    30    17    19 1   
    31    20    21 1   
    32    21    22 ar  
    33    21    26 ar  
    34    22    23 ar  
    35    22    36 1   
    36    23    24 ar  
    37    23    37 1   
    38    24    25 ar  
    39    24    38 1   
    40    25    26 ar  
    41    25    39 1   
    42    26    40 1   
@<TRIPOS>SUBSTRUCTURE
     1 1O3         1 TEMP              0 ****  ****    0 ROOT
