@<TRIPOS>MOLECULE
molecule
   40    42     1     0     0
SMALL
bcc


@<TRIPOS>ATOM
      1 C1           0.0000     0.0000     0.0000 ca         1 1O3       0.244900
      2 C2           1.3840     0.0000     0.0000 ca         1 1O3      -0.160000
      3 C3           2.0740     0.0000     1.1990 ca         1 1O3       0.056100
      4 C4           1.3820    -0.0000     2.3960 ca         1 1O3      -0.148000
      5 C5          -0.0010    -0.0000     2.3960 ca         1 1O3       0.009000
      6 C6          -0.6930     0.0060     1.1990 ca         1 1O3      -0.310500
      7 S7          -2.4540     0.0130     1.2000 sy         1 1O3       1.434200
      8 O8          -2.8590    -1.0090     0.2990 o          1 1O3      -0.653300
      9 O9          -2.8550     0.0520     2.5620 o          1 1O3      -0.653300
     10 N10         -2.9380     1.4470     0.5270 nu         1 1O3      -0.732500
     11 C11         -2.6820     1.7080    -0.8150 ca         1 1O3       0.132600
     12 C12         -1.8000     2.7370    -1.1760 ca         1 1O3      -0.101600
     13 C13         -1.5450     2.9870    -2.5280 ca         1 1O3      -0.087000
     14 C14         -2.1620     2.2200    -3.4970 ca         1 1O3       0.057100
     15 C15         -3.0350     1.2000    -3.1330 ca         1 1O3      -0.160000
     16 C16         -3.2940     0.9450    -1.8020 ca         1 1O3      -0.134000
     17 C17         -1.1460     3.5510    -0.1370 c          1 1O3       0.880200
     18 O18         -0.3000     4.5400    -0.4870 o          1 1O3      -0.828800
     19 O19         -1.3710     3.3320     1.0370 o          1 1O3      -0.828800
     20 O20         -1.9160     2.4620    -4.8120 os         1 1O3      -0.249200
     21 C21         -2.8570     3.1360    -5.5250 ca         1 1O3       0.155100
     22 C22         -2.6130     3.4810    -6.8470 ca         1 1O3      -0.184000
     23 C23         -3.5710     4.1660    -7.5680 ca         1 1O3      -0.099500
     24 C24         -4.7720     4.5070    -6.9740 ca         1 1O3      -0.180000
     25 C25         -5.0180     4.1650    -5.6570 ca         1 1O3      -0.099500
     26 C26         -4.0650     3.4750    -4.9320 ca         1 1O3      -0.184000
     27 F27         -0.6750    -0.0000    -1.1710 f          1 1O3      -0.112900
     28 Br1          3.9660     0.0000     1.2020 br         1 1O3      -0.108100
     29 H1           1.9270    -0.0020    -0.9380 ha         1 1O3       0.157000
     30 H2           1.9230    -0.0030     3.3340 ha         1 1O3       0.140000
     31 H3          -0.5430     0.0020     3.3340 ha         1 1O3       0.162000
     32 H4          -3.4250     2.1220     1.0840 hn         1 1O3       0.482800
     33 H5          -0.8120     3.7320    -2.8130 ha         1 1O3       0.174000
     34 H6          -3.5090     0.5980    -3.8980 ha         1 1O3       0.127000
     35 H7          -3.9840     0.1570    -1.5260 ha         1 1O3       0.144000
     36 H9          -1.6720     3.2130    -7.3120 ha         1 1O3       0.147000
     37 H10         -3.3820     4.4360    -8.5990 ha         1 1O3       0.122500
     38 H11         -5.5220     5.0460    -7.5410 ha         1 1O3       0.117000
     39 H12         -5.9610     4.4320    -5.1960 ha         1 1O3       0.122500
     40 H13         -4.2580     3.2070    -3.9010 ha         1 1O3       0.147000
@<TRIPOS>BOND
     1    28     3 1
     2    24    23 ar
     3    24    25 ar
     4    23    22 ar
     5    25    26 ar
     6    22    21 ar
     7     3     4 ar
     8     3     2 ar
     9    26    21 ar
    10    21    20 1
    11     4     5 ar
    12     2     1 ar
    13    20    14 1
    14    19    17 1
    15     5     6 ar
    16    13    14 ar
    17    13    12 ar
    18     1    27 1
    19     1     6 ar
    20    14    15 ar
    21    17    12 1
    22    17    18 1
    23     6     7 1
    24    12    11 ar
    25    15    16 ar
    26    11    16 ar
    27    11    10 1
    28     7    10 1
    29     7     9 2
    30     7     8 2
    31     2    29 1
    32     4    30 1
    33     5    31 1
    34    10    32 1
    35    13    33 1
    36    15    34 1
    37    16    35 1
    38    22    36 1
    39    23    37 1
    40    24    38 1
    41    25    39 1
    42    26    40 1
@<TRIPOS>SUBSTRUCTURE
     1 1O3         1 TEMP              0 ****  ****    0 ROOT
