@<TRIPOS>MOLECULE
1O5
   51    54     1     0     0
SMALL
bcc


@<TRIPOS>ATOM
      1 O3           0.2010     0.7980    -0.5460 o          1 1O5      -0.571800
      2 S            1.1870    -0.0140    -0.0270 sy         1 1O5       1.494200
      3 O2           1.3130    -0.1730     1.3370 o          1 1O5      -0.571800
      4 N3           2.7290     1.1130    -0.3490 nz         1 1O5      -0.783500
      5 C12          1.6580    -1.2500    -0.9170 ca         1 1O5      -0.558500
      6 C11          2.4120    -2.2680    -0.2770 ca         1 1O5      -0.009000
      7 C13          1.3240    -1.4320    -2.2830 ca         1 1O5       0.082700
      8 C14          0.5290    -0.4210    -3.0210 c3         1 1O5      -0.104800
      9 C15          1.7370    -2.5880    -2.9520 ca         1 1O5      -0.159000
     10 C16          2.4830    -3.5670    -2.3050 ca         1 1O5       0.007000
     11 C10          2.8320    -3.4100    -0.9490 ca         1 1O5      -0.064900
     12 C7           3.6240    -4.4190    -0.2770 cc         1 1O5       0.316500
     13 N2           4.5600    -4.1280     0.6820 nd         1 1O5      -0.498100
     14 N1           5.1110    -5.2610     1.0830 na         1 1O5       0.019900
     15 C8           3.5800    -5.8600    -0.4910 ca         1 1O5      -0.158900
     16 C9           2.8430    -6.7450    -1.2800 ca         1 1O5      -0.181000
     17 C3           3.1050    -8.1070    -1.1700 ca         1 1O5       0.143100
     18 O1           2.4350    -9.0610    -1.9030 os         1 1O5      -0.318900
     19 C2           1.4340    -8.5920    -2.8180 c3         1 1O5       0.127400
     20 C1           0.8760    -9.8310    -3.4810 c3         1 1O5      -0.104100
     21 C6           4.5700    -6.3780     0.4170 ca         1 1O5      -0.077200
     22 C5           4.8320    -7.7500     0.5200 ca         1 1O5      -0.119000
     23 C4           4.1060    -8.6310    -0.2780 ca         1 1O5       0.059000
     24 C17          4.3720   -10.0390    -0.1890 cc         1 1O5      -0.241300
     25 C20          3.5180   -11.1530    -0.5600 cc         1 1O5       0.345200
     26 N5           4.1370   -12.3280    -0.3010 nd         1 1O5      -0.505800
     27 N4           5.3460   -12.0310     0.2140 na         1 1O5       0.099400
     28 C19          6.3100   -13.0290     0.6150 c3         1 1O5       0.035600
     29 C18          5.5440   -10.6550     0.3080 cd         1 1O5      -0.121300
     30 H1           3.4140     0.6610    -0.9460 hn         1 1O5       0.452800
     31 H2           3.1840     1.3430     0.5320 hn         1 1O5       0.452800
     32 H3           2.6580    -2.1540     0.7980 ha         1 1O5       0.180000
     33 H4           0.4700    -0.6680    -4.1110 hc         1 1O5       0.079033
     34 H5          -0.5180    -0.3760    -2.6190 hc         1 1O5       0.079033
     35 H6           0.9780     0.6000    -2.9200 hc         1 1O5       0.079033
     36 H7           1.4670    -2.7240    -4.0130 ha         1 1O5       0.170000
     37 H8           2.8140    -4.4690    -2.8500 ha         1 1O5       0.176000
     38 H10          2.0680    -6.3610    -1.9560 ha         1 1O5       0.138000
     39 H11          1.9070    -7.9070    -3.5700 h1         1 1O5       0.035700
     40 H12          0.6390    -8.0410    -2.2500 h1         1 1O5       0.035700
     41 H13          0.4670   -10.5320    -2.7140 hc         1 1O5       0.056700
     42 H14          1.6750   -10.3630    -4.0510 hc         1 1O5       0.056700
     43 H15          0.0600    -9.5350    -4.1810 hc         1 1O5       0.056700
     44 H16          5.5890    -8.1280     1.2210 ha         1 1O5       0.150000
     45 H17          2.5160   -11.1040    -0.9940 h4         1 1O5       0.061100
     46 H18          5.8790   -13.6730     1.4280 h1         1 1O5       0.064367
     47 H19          7.2290   -12.5100     0.9920 h1         1 1O5       0.064367
     48 H20          6.5760   -13.6780    -0.2620 h1         1 1O5       0.064367
     49 H21          6.4670   -10.2240     0.6930 h4         1 1O5       0.175000
     50 H9           5.8240    -5.2630     1.7760 hn         1 1O5       0.338700
     51 H33          2.4470     1.9840    -0.7920 hn         1 1O5       0.452800
@<TRIPOS>BOND
     1     1     2 2   
     2     2     3 2   
     3     2     4 1   
     4     2     5 1   
     5     4    30 1   
     6     4    31 1   
     7     4    51 1   
     8     5     6 ar  
     9     5     7 ar  
    10     6    11 ar  
    11     6    32 1   
    12     7     8 1   
    13     7     9 ar  
    14     8    33 1   
    15     8    34 1   
    16     8    35 1   
    17     9    10 ar  
    18     9    36 1   
    19    10    11 ar  
    20    10    37 1   
    21    11    12 1   
    22    12    13 2   
    23    12    15 1   
    24    13    14 1   
    25    14    21 1   
    26    14    50 1   
    27    15    16 ar  
    28    15    21 ar  
    29    16    17 ar  
    30    16    38 1   
    31    17    18 1   
    32    17    23 ar  
    33    18    19 1   
    34    19    20 1   
    35    19    39 1   
    36    19    40 1   
    37    20    41 1   
    38    20    42 1   
    39    20    43 1   
    40    21    22 ar  
    41    22    23 ar  
    42    22    44 1   
    43    23    24 1   
    44    24    25 1   
    45    24    29 2   
    46    25    26 2   
    47    25    45 1   
    48    26    27 1   
    49    27    28 1   
    50    27    29 1   
    51    28    46 1   
    52    28    47 1   
    53    28    48 1   
    54    29    49 1   
@<TRIPOS>SUBSTRUCTURE
     1 1O5         1 TEMP              0 ****  ****    0 ROOT
