@<TRIPOS>MOLECULE
1O5
   51    54     1     0     0
SMALL
bcc


@<TRIPOS>ATOM
      1 O3           0.0000     0.0000     0.0000 o          1 1O5      -0.498800
      2 S            1.4210     0.0000     0.0000 sy         1 1O5       0.941200
      3 O2           2.1980     0.0000     1.1900 o          1 1O5      -0.498800
      4 N3           1.8890    -1.3310    -0.8640 nz         1 1O5      -0.155500
      5 C12          1.9180     1.4200    -0.9180 ca         1 1O5      -0.212500
      6 C11          0.9660     2.2740    -1.4350 ca         1 1O5       0.040000
      7 C13          3.2620     1.6790    -1.1150 ca         1 1O5      -0.015300
      8 C14          4.2980     0.7450    -0.5430 c3         1 1O5       0.010200
      9 C15          3.6600     2.7900    -1.8350 ca         1 1O5      -0.101000
     10 C16          2.7160     3.6490    -2.3610 ca         1 1O5      -0.001000
     11 C10          1.3600     3.3960    -2.1610 ca         1 1O5      -0.067900
     12 C7           0.3420     4.3140    -2.7240 cc         1 1O5       0.384500
     13 N2          -0.8340     3.9740    -3.1930 nd         1 1O5      -0.623100
     14 N1          -1.5190     5.1090    -3.6380 na         1 1O5       0.449900
     15 C8           0.4640     5.7710    -2.8500 ca         1 1O5      -0.199900
     16 C9           1.4680     6.6880    -2.5260 ca         1 1O5      -0.178000
     17 C3           1.2820     8.0190    -2.7720 ca         1 1O5       0.152100
     18 O1           2.2620     8.9080    -2.4560 os         1 1O5      -0.289900
     19 C2           3.4540     8.3800    -1.8710 c3         1 1O5       0.200400
     20 C1           4.4320     9.5220    -1.5870 c3         1 1O5       0.001900
     21 C6          -0.7350     6.2170    -3.4380 ca         1 1O5      -0.215200
     22 C5          -0.9140     7.5750    -3.6850 ca         1 1O5      -0.081000
     23 C4           0.0860     8.4730    -3.3480 ca         1 1O5       0.058000
     24 C17         -0.1040     9.9220    -3.6110 cc         1 1O5      -0.292300
     25 C20          0.1090    10.9690    -2.6920 cc         1 1O5       0.425200
     26 N5          -0.1630    12.0970    -3.2930 nd         1 1O5      -0.642800
     27 N4          -0.5570    11.8190    -4.6070 na         1 1O5       0.502400
     28 C19         -0.9480    12.8080    -5.6140 c3         1 1O5       0.020600
     29 C18         -0.5100    10.4830    -4.7860 cd         1 1O5      -0.233300
     30 H1           2.6240    -1.8040    -0.3770 hn         1 1O5       0.320133
     31 H2           1.1090    -1.9490    -0.9730 hn         1 1O5       0.320133
     32 H3          -0.0870     2.0720    -1.2760 ha         1 1O5       0.149000
     33 H4           4.2580    -0.2030    -1.0660 hc         1 1O5       0.028033
     34 H5           4.0990     0.5860     0.5100 hc         1 1O5       0.028033
     35 H6           5.2820     1.1820    -0.6620 hc         1 1O5       0.028033
     36 H7           4.7150     2.9860    -1.9880 ha         1 1O5       0.130000
     37 H8           3.0290     4.5200    -2.9250 ha         1 1O5       0.134000
     38 H10          2.3640     6.3510    -2.0180 ha         1 1O5       0.120000
     39 H11          3.2080     7.8760    -0.9450 h1         1 1O5      -0.006300
     40 H12          3.9100     7.6760    -2.5560 h1         1 1O5      -0.006300
     41 H13          5.4070     9.1130    -1.3520 hc         1 1O5       0.015700
     42 H14          4.5080    10.1580    -2.4610 hc         1 1O5       0.015700
     43 H15          4.0730    10.1050    -0.7470 hc         1 1O5       0.015700
     44 H16         -1.8360     7.9290    -4.1300 ha         1 1O5       0.118000
     45 H17          0.4410    10.8580    -1.6670 h4         1 1O5       0.011100
     46 H18         -1.9480    12.5880    -5.9680 h1         1 1O5       0.025033
     47 H19         -0.2540    12.7710    -6.4460 h1         1 1O5       0.025033
     48 H20         -0.9300    13.7980    -5.1740 h1         1 1O5       0.025033
     49 H21         -0.7570     9.9500    -5.6970 h4         1 1O5       0.146000
     50 H9          -2.4360     5.1120    -4.0380 hn         1 1O5       0.158700
     51 H33          2.2040    -1.0470    -1.7710 hn         1 1O5       0.320133
@<TRIPOS>BOND
     1     1     2 2   
     2     2     3 2   
     3     2     4 1   
     4     2     5 1   
     5     4    30 1   
     6     4    31 1   
     7     4    51 1   
     8     5     6 ar  
     9     5     7 ar  
    10     6    11 ar  
    11     6    32 1   
    12     7     8 1   
    13     7     9 ar  
    14     8    33 1   
    15     8    34 1   
    16     8    35 1   
    17     9    10 ar  
    18     9    36 1   
    19    10    11 ar  
    20    10    37 1   
    21    11    12 1   
    22    12    13 2   
    23    12    15 1   
    24    13    14 1   
    25    14    21 1   
    26    14    50 1   
    27    15    16 ar  
    28    15    21 ar  
    29    16    17 ar  
    30    16    38 1   
    31    17    18 1   
    32    17    23 ar  
    33    18    19 1   
    34    19    20 1   
    35    19    39 1   
    36    19    40 1   
    37    20    41 1   
    38    20    42 1   
    39    20    43 1   
    40    21    22 ar  
    41    22    23 ar  
    42    22    44 1   
    43    23    24 1   
    44    24    25 1   
    45    24    29 2   
    46    25    26 2   
    47    25    45 1   
    48    26    27 1   
    49    27    28 1   
    50    27    29 1   
    51    28    46 1   
    52    28    47 1   
    53    28    48 1   
    54    29    49 1   
@<TRIPOS>SUBSTRUCTURE
     1 1O5         1 TEMP              0 ****  ****    0 ROOT
