@<TRIPOS>MOLECULE
molecule
   51    54     1     0     0
SMALL
bcc


@<TRIPOS>ATOM
      1 O3           0.0000     0.0000     0.0000 o          1 1O5      -0.523800
      2 S            1.4210     0.0000     0.0000 sy         1 1O5       1.238200
      3 O2           2.1980     0.0000     1.1900 o          1 1O5      -0.523800
      4 N3           1.8890    -1.3310    -0.8640 nz         1 1O5      -0.813500
      5 C12          1.9180     1.4200    -0.9180 ca         1 1O5      -0.335500
      6 C11          0.9660     2.2740    -1.4350 ca         1 1O5       0.004000
      7 C13          3.2620     1.6790    -1.1150 ca         1 1O5      -0.011300
      8 C14          4.2980     0.7450    -0.5430 c3         1 1O5      -0.098800
      9 C15          3.6600     2.7900    -1.8350 ca         1 1O5      -0.127000
     10 C16          2.7160     3.6490    -2.3610 ca         1 1O5      -0.023000
     11 C10          1.3600     3.3960    -2.1610 ca         1 1O5      -0.065900
     12 C7           0.3420     4.3140    -2.7240 cc         1 1O5       0.370500
     13 N2          -0.8340     3.9740    -3.1930 nd         1 1O5      -0.487100
     14 N1          -1.5190     5.1090    -3.6380 na         1 1O5      -0.029100
     15 C8           0.4640     5.7710    -2.8500 ca         1 1O5      -0.204900
     16 C9           1.4680     6.6880    -2.5260 ca         1 1O5      -0.187000
     17 C3           1.2820     8.0190    -2.7720 ca         1 1O5       0.139100
     18 O1           2.2620     8.9080    -2.4560 os         1 1O5      -0.312900
     19 C2           3.4540     8.3800    -1.8710 c3         1 1O5       0.133400
     20 C1           4.4320     9.5220    -1.5870 c3         1 1O5      -0.093100
     21 C6          -0.7350     6.2170    -3.4380 ca         1 1O5      -0.043200
     22 C5          -0.9140     7.5750    -3.6850 ca         1 1O5      -0.120000
     23 C4           0.0860     8.4730    -3.3480 ca         1 1O5       0.050000
     24 C17         -0.1040     9.9220    -3.6110 cd         1 1O5      -0.284300
     25 C20          0.1090    10.9690    -2.6920 cd         1 1O5       0.367200
     26 N5          -0.1630    12.0970    -3.2930 nc         1 1O5      -0.504800
     27 N4          -0.5570    11.8190    -4.6070 na         1 1O5       0.074400
     28 C19         -0.9480    12.8080    -5.6140 c3         1 1O5       0.060600
     29 C18         -0.5100    10.4830    -4.7860 cc         1 1O5      -0.091300
     30 H1           2.6240    -1.8040    -0.3770 hn         1 1O5       0.494467
     31 H2           1.1090    -1.9490    -0.9730 hn         1 1O5       0.494467
     32 H3          -0.0870     2.0720    -1.2760 ha         1 1O5       0.181000
     33 H4           4.2580    -0.2030    -1.0660 hc         1 1O5       0.064700
     34 H5           4.0990     0.5860     0.5100 hc         1 1O5       0.064700
     35 H6           5.2820     1.1820    -0.6620 hc         1 1O5       0.064700
     36 H7           4.7150     2.9860    -1.9880 ha         1 1O5       0.162000
     37 H8           3.0290     4.5200    -2.9250 ha         1 1O5       0.172000
     38 H10          2.3640     6.3510    -2.0180 ha         1 1O5       0.132000
     39 H11          3.2080     7.8760    -0.9450 h1         1 1O5       0.028200
     40 H12          3.9100     7.6760    -2.5560 h1         1 1O5       0.028200
     41 H13          5.4070     9.1130    -1.3520 hc         1 1O5       0.053033
     42 H14          4.5080    10.1580    -2.4610 hc         1 1O5       0.053033
     43 H15          4.0730    10.1050    -0.7470 hc         1 1O5       0.053033
     44 H16         -1.8360     7.9290    -4.1300 ha         1 1O5       0.149000
     45 H17          0.4410    10.8580    -1.6670 h4         1 1O5       0.057100
     46 H18         -1.9480    12.5880    -5.9680 h1         1 1O5       0.059367
     47 H19         -0.2540    12.7710    -6.4460 h1         1 1O5       0.059367
     48 H20         -0.9300    13.7980    -5.1740 h1         1 1O5       0.059367
     49 H21         -0.7570     9.9500    -5.6970 h4         1 1O5       0.172000
     50 H9          -2.4360     5.1120    -4.0380 hn         1 1O5       0.343700
     51 H33          2.2040    -1.0470    -1.7710 hn         1 1O5       0.494467
@<TRIPOS>BOND
     1    28    27 1
     2    27    26 1
     3    27    29 1
     4    26    25 2
     5    29    24 2
     6    25    24 1
     7    24    23 1
     8    20    19 1
     9    18    19 1
    10    18    17 1
    11    23    17 ar
    12    23    22 ar
    13    17    16 ar
    14    22    21 ar
    15    16    15 ar
    16    21    15 ar
    17    21    14 1
    18    15    12 1
    19    14    13 1
    20    12    13 2
    21    12    11 1
    22    10    11 ar
    23    10     9 ar
    24    11     6 ar
    25     9     7 ar
    26     6     5 ar
    27     7     5 ar
    28     7     8 1
    29     5     2 1
    30     2     3 2
    31     2     4 1
    32     2     1 2
    33     4    30 1
    34     4    31 1
    35     6    32 1
    36     8    33 1
    37     8    34 1
    38     8    35 1
    39     9    36 1
    40    10    37 1
    41    16    38 1
    42    19    39 1
    43    19    40 1
    44    20    41 1
    45    20    42 1
    46    20    43 1
    47    22    44 1
    48    25    45 1
    49    28    46 1
    50    28    47 1
    51    28    48 1
    52    29    49 1
    53    14    50 1
    54    51     4 1
@<TRIPOS>SUBSTRUCTURE
     1 1O5         1 TEMP              0 ****  ****    0 ROOT
