@<TRIPOS>MOLECULE
1O6
   57    59     1     0     0
SMALL
bcc


@<TRIPOS>ATOM
      1 C1           0.0000     0.0000     0.0000 c3         1 1O6      -0.023900
      2 C2           1.5300     0.0000     0.0000 c3         1 1O6      -0.023900
      3 C3           2.0390     0.0000     1.4420 c3         1 1O6      -0.054700
      4 C4           1.5290    -1.2480     2.1640 c3         1 1O6      -0.023900
      5 C5          -0.0000    -1.2490     2.1640 c3         1 1O6      -0.023900
      6 C6          -0.5100    -1.2490     0.7220 c3         1 1O6      -0.124700
      7 C7          -2.0170    -1.2490     0.7210 c          1 1O6       0.620100
      8 O8          -2.6240    -0.2300     0.4710 o          1 1O6      -0.656100
      9 C9          -1.9640    -3.5830     1.4200 c3         1 1O6       0.000700
     10 N10         -2.6910    -2.3840     1.0000 n          1 1O6       0.022000
     11 C11         -4.0800    -2.4140     0.8870 ca         1 1O6      -0.047400
     12 C12         -4.6800    -2.6340    -0.3620 ca         1 1O6      -0.075600
     13 C13         -6.0730    -2.6690    -0.4630 ca         1 1O6      -0.078000
     14 C14         -6.8510    -2.4860     0.6650 ca         1 1O6       0.057100
     15 C15         -6.2490    -2.2680     1.9010 ca         1 1O6      -0.138000
     16 C16         -4.8750    -2.2330     2.0110 ca         1 1O6      -0.117000
     17 C17         -3.8460    -2.8270    -1.5610 c          1 1O6       0.978200
     18 O18         -4.4190    -3.1490    -2.7370 o          1 1O6      -0.880800
     19 O19         -2.6390    -2.6960    -1.4900 o          1 1O6      -0.880800
     20 O20         -8.2060    -2.5200     0.5680 os         1 1O6      -0.220200
     21 C21         -8.8070    -3.7330     0.4550 ca         1 1O6       0.163100
     22 C22        -10.1760    -3.8120     0.2380 ca         1 1O6      -0.170500
     23 C23        -10.7850    -5.0470     0.1230 ca         1 1O6      -0.067500
     24 C24        -10.0320    -6.2020     0.2250 ca         1 1O6      -0.162000
     25 C25         -8.6680    -6.1260     0.4410 ca         1 1O6      -0.067500
     26 C26         -8.0540    -4.8940     0.5520 ca         1 1O6      -0.170500
     27 C28          3.5700     0.0000     1.4430 c3         1 1O6       0.005900
     28 C29         -2.5150    -4.0700     2.7620 c3         1 1O6      -0.035100
     29 C30         -2.1390    -4.6810     0.3700 c3         1 1O6      -0.035100
     30 H1          -0.3600    -0.0030    -1.0220 hc         1 1O6       0.027450
     31 H2          -0.3600     0.8840     0.5130 hc         1 1O6       0.027450
     32 H3           1.8890     0.8860    -0.5090 hc         1 1O6       0.009950
     33 H4           1.8890    -0.8860    -0.5090 hc         1 1O6       0.009950
     34 H5           1.6740     0.8830     1.9520 hc         1 1O6       0.026700
     35 H6           1.8880    -1.2450     3.1860 hc         1 1O6       0.009950
     36 H7           1.8890    -2.1330     1.6530 hc         1 1O6       0.009950
     37 H8          -0.3610    -0.3630     2.6730 hc         1 1O6       0.027450
     38 H9          -0.3600    -2.1360     2.6730 hc         1 1O6       0.027450
     39 H10         -0.1440    -2.1330     0.2120 hc         1 1O6       0.057700
     40 H11         -0.9110    -3.3500     1.5260 h1         1 1O6       0.045700
     41 H12         -6.5430    -2.8390    -1.4240 ha         1 1O6       0.145000
     42 H13         -6.8630    -2.1260     2.7810 ha         1 1O6       0.098000
     43 H14         -4.4140    -2.0620     2.9760 ha         1 1O6       0.099000
     44 H16        -10.7660    -2.9070     0.1580 ha         1 1O6       0.124000
     45 H17        -11.8530    -5.1100    -0.0470 ha         1 1O6       0.093500
     46 H18        -10.5120    -7.1700     0.1360 ha         1 1O6       0.094000
     47 H19         -8.0810    -7.0330     0.5190 ha         1 1O6       0.093500
     48 H20         -6.9850    -4.8340     0.7210 ha         1 1O6       0.124000
     49 H21          3.9310     0.8840     0.9330 hc         1 1O6      -0.003300
     50 H22          3.9310    -0.8850     0.9330 hc         1 1O6      -0.003300
     51 H23          3.9300     0.0010     2.4650 hc         1 1O6      -0.003300
     52 H24         -1.7950    -4.7310     3.2300 hc         1 1O6       0.015033
     53 H25         -3.4430    -4.6040     2.5990 hc         1 1O6       0.015033
     54 H26         -2.6960    -3.2190     3.4080 hc         1 1O6       0.015033
     55 H27         -3.1950    -4.8640     0.2120 hc         1 1O6       0.015033
     56 H28         -1.6620    -5.5900     0.7140 hc         1 1O6       0.015033
     57 H29         -1.6840    -4.3650    -0.5620 hc         1 1O6       0.015033
@<TRIPOS>BOND
     1     1     2 1   
     2     1     6 1   
     3     1    30 1   
     4     1    31 1   
     5     2     3 1   
     6     2    32 1   
     7     2    33 1   
     8     3     4 1   
     9     3    27 1   
    10     3    34 1   
    11     4     5 1   
    12     4    35 1   
    13     4    36 1   
    14     5     6 1   
    15     5    37 1   
    16     5    38 1   
    17     6     7 1   
    18     6    39 1   
    19     7     8 2   
    20     7    10 1   
    21     9    10 1   
    22     9    28 1   
    23     9    29 1   
    24     9    40 1   
    25    10    11 1   
    26    11    12 ar  
    27    11    16 ar  
    28    12    13 ar  
    29    12    17 1   
    30    13    14 ar  
    31    13    41 1   
    32    14    15 ar  
    33    14    20 1   
    34    15    16 ar  
    35    15    42 1   
    36    16    43 1   
    37    17    18 1   
    38    17    19 1   
    39    20    21 1   
    40    21    22 ar  
    41    21    26 ar  
    42    22    23 ar  
    43    22    44 1   
    44    23    24 ar  
    45    23    45 1   
    46    24    25 ar  
    47    24    46 1   
    48    25    26 ar  
    49    25    47 1   
    50    26    48 1   
    51    27    49 1   
    52    27    50 1   
    53    27    51 1   
    54    28    52 1   
    55    28    53 1   
    56    28    54 1   
    57    29    55 1   
    58    29    56 1   
    59    29    57 1   
@<TRIPOS>SUBSTRUCTURE
     1 1O6         1 TEMP              0 ****  ****    0 ROOT
