@<TRIPOS>MOLECULE
1O6
   57    59     1     0     0
SMALL
bcc


@<TRIPOS>ATOM
      1 C1           0.1010    -0.0920     0.1380 c3         1 1O6      -0.065400
      2 C2           1.6000    -0.2470     0.2820 c3         1 1O6      -0.070900
      3 C3           1.9940    -0.5090     1.7280 c3         1 1O6      -0.066700
      4 C4           1.2630    -1.7350     2.2570 c3         1 1O6      -0.070900
      5 C5          -0.2370    -1.5840     2.1150 c3         1 1O6      -0.065400
      6 C6          -0.6200    -1.3250     0.6670 c3         1 1O6      -0.143700
      7 C7          -2.1260    -1.1220     0.5530 c          1 1O6       0.689100
      8 O8          -2.6250     0.0240     0.4990 o          1 1O6      -0.647100
      9 C9          -4.3850    -2.0450     0.2340 c3         1 1O6       0.119700
     10 N10         -2.9630    -2.2310     0.5140 n          1 1O6      -0.386000
     11 C11         -2.4900    -3.5560     0.7210 ca         1 1O6       0.048600
     12 C12         -1.8820    -4.3080    -0.3090 ca         1 1O6      -0.096600
     13 C13         -1.4640    -5.6170    -0.0560 ca         1 1O6      -0.130000
     14 C14         -1.6370    -6.1730     1.2120 ca         1 1O6       0.062100
     15 C15         -2.2280    -5.4430     2.2490 ca         1 1O6      -0.160000
     16 C16         -2.6560    -4.1450     1.9970 ca         1 1O6      -0.140000
     17 C17         -1.6270    -3.7440    -1.7080 c          1 1O6       0.916200
     18 O18         -2.5370    -3.8670    -2.5690 o          1 1O6      -0.812800
     19 O19         -0.4980    -3.2170    -1.9080 o          1 1O6      -0.812800
     20 O20         -1.3440    -7.5180     1.4710 os         1 1O6      -0.258200
     21 C21         -0.0120    -7.8920     1.4030 ca         1 1O6       0.136100
     22 C22          0.2240    -9.2590     1.6430 ca         1 1O6      -0.176000
     23 C23          1.5300    -9.7350     1.6130 ca         1 1O6      -0.104000
     24 C24          2.5940    -8.8710     1.3480 ca         1 1O6      -0.177000
     25 C25          2.3490    -7.5190     1.1080 ca         1 1O6      -0.104000
     26 C26          1.0490    -7.0180     1.1340 ca         1 1O6      -0.176000
     27 C28          3.4920    -0.6880     1.8510 c3         1 1O6      -0.087100
     28 C29         -5.0040    -3.1940    -0.5590 c3         1 1O6      -0.117100
     29 C30         -5.2130    -1.8050     1.5000 c3         1 1O6      -0.117100
     30 H1          -0.1620     0.0450    -0.9440 hc         1 1O6       0.046950
     31 H2          -0.2510     0.8170     0.6920 hc         1 1O6       0.046950
     32 H3           2.1090     0.6840    -0.0800 hc         1 1O6       0.038950
     33 H4           1.9500    -1.0980    -0.3610 hc         1 1O6       0.038950
     34 H5           1.6860     0.3810     2.3470 hc         1 1O6       0.037700
     35 H6           1.6030    -2.6420     1.6910 hc         1 1O6       0.038950
     36 H7           1.5240    -1.8890     3.3360 hc         1 1O6       0.038950
     37 H8          -0.7430    -2.5190     2.4750 hc         1 1O6       0.046950
     38 H9          -0.5930    -0.7340     2.7550 hc         1 1O6       0.046950
     39 H10         -0.3200    -2.2080     0.0200 hc         1 1O6       0.137700
     40 H11         -4.4580    -1.1070    -0.4010 h1         1 1O6       0.073700
     41 H12         -0.9980    -6.2010    -0.8640 ha         1 1O6       0.154000
     42 H13         -2.3610    -5.8990     3.2390 ha         1 1O6       0.130000
     43 H14         -3.1330    -3.5740     2.8090 ha         1 1O6       0.127000
     44 H16         -0.6240    -9.9260     1.8470 ha         1 1O6       0.153000
     45 H17          1.7220   -10.8010     1.7980 ha         1 1O6       0.125000
     46 H18          3.6220    -9.2570     1.3240 ha         1 1O6       0.121000
     47 H19          3.1850    -6.8380     0.8920 ha         1 1O6       0.125000
     48 H20          0.8560    -5.9520     0.9340 ha         1 1O6       0.153000
     49 H21          3.8330    -1.5620     1.2450 hc         1 1O6       0.026367
     50 H22          3.7780    -0.8630     2.9160 hc         1 1O6       0.026367
     51 H23          4.0230     0.2230     1.4840 hc         1 1O6       0.026367
     52 H24         -4.3710    -3.4500    -1.4500 hc         1 1O6       0.042033
     53 H25         -5.1090    -4.1050     0.0770 hc         1 1O6       0.042033
     54 H26         -6.0170    -2.8810    -0.9060 hc         1 1O6       0.042033
     55 H27         -5.1760    -2.6910     2.1780 hc         1 1O6       0.042033
     56 H28         -6.2740    -1.6230     1.2070 hc         1 1O6       0.042033
     57 H29         -4.8330    -0.9110     2.0510 hc         1 1O6       0.042033
@<TRIPOS>BOND
     1     1     2 1   
     2     1     6 1   
     3     1    30 1   
     4     1    31 1   
     5     2     3 1   
     6     2    32 1   
     7     2    33 1   
     8     3     4 1   
     9     3    27 1   
    10     3    34 1   
    11     4     5 1   
    12     4    35 1   
    13     4    36 1   
    14     5     6 1   
    15     5    37 1   
    16     5    38 1   
    17     6     7 1   
    18     6    39 1   
    19     7     8 2   
    20     7    10 1   
    21     9    10 1   
    22     9    28 1   
    23     9    29 1   
    24     9    40 1   
    25    10    11 1   
    26    11    12 ar  
    27    11    16 ar  
    28    12    13 ar  
    29    12    17 1   
    30    13    14 ar  
    31    13    41 1   
    32    14    15 ar  
    33    14    20 1   
    34    15    16 ar  
    35    15    42 1   
    36    16    43 1   
    37    17    18 1   
    38    17    19 1   
    39    20    21 1   
    40    21    22 ar  
    41    21    26 ar  
    42    22    23 ar  
    43    22    44 1   
    44    23    24 ar  
    45    23    45 1   
    46    24    25 ar  
    47    24    46 1   
    48    25    26 ar  
    49    25    47 1   
    50    26    48 1   
    51    27    49 1   
    52    27    50 1   
    53    27    51 1   
    54    28    52 1   
    55    28    53 1   
    56    28    54 1   
    57    29    55 1   
    58    29    56 1   
    59    29    57 1   
@<TRIPOS>SUBSTRUCTURE
     1 1O6         1 TEMP              0 ****  ****    0 ROOT
