@<TRIPOS>MOLECULE
molecule
   57    59     1     0     0
SMALL
bcc


@<TRIPOS>ATOM
      1 C1           0.0000     0.0000     0.0000 c3         1 1O6      -0.070900
      2 C2           1.5300     0.0000     0.0000 c3         1 1O6      -0.075900
      3 C3           2.0390     0.0000     1.4420 c3         1 1O6      -0.074700
      4 C4           1.5290    -1.2480     2.1640 c3         1 1O6      -0.075900
      5 C5          -0.0000    -1.2490     2.1640 c3         1 1O6      -0.070900
      6 C6          -0.5100    -1.2490     0.7220 c3         1 1O6      -0.135700
      7 C7          -2.0170    -1.2490     0.7210 c          1 1O6       0.707100
      8 O8          -2.6240    -0.2300     0.4710 o          1 1O6      -0.610100
      9 C9          -1.9640    -3.5830     1.4200 c3         1 1O6       0.113700
     10 N10         -2.6910    -2.3840     1.0000 n          1 1O6      -0.371000
     11 C11         -4.0800    -2.4140     0.8870 ca         1 1O6       0.082600
     12 C12         -4.6800    -2.6340    -0.3620 ca         1 1O6      -0.087600
     13 C13         -6.0730    -2.6690    -0.4630 ca         1 1O6      -0.100000
     14 C14         -6.8510    -2.4860     0.6650 ca         1 1O6       0.052100
     15 C15         -6.2490    -2.2680     1.9010 ca         1 1O6      -0.153000
     16 C16         -4.8750    -2.2330     2.0110 ca         1 1O6      -0.144000
     17 C17         -3.8460    -2.8270    -1.5610 c          1 1O6       0.887200
     18 O18         -4.4190    -3.1490    -2.7370 o          1 1O6      -0.831800
     19 O19         -2.6390    -2.6960    -1.4900 o          1 1O6      -0.831800
     20 O20         -8.2060    -2.5200     0.5680 os         1 1O6      -0.250200
     21 C21         -8.8070    -3.7330     0.4550 ca         1 1O6       0.154100
     22 C22        -10.1760    -3.8120     0.2380 ca         1 1O6      -0.182000
     23 C23        -10.7850    -5.0470     0.1230 ca         1 1O6      -0.099500
     24 C24        -10.0320    -6.2020     0.2250 ca         1 1O6      -0.181000
     25 C25         -8.6680    -6.1260     0.4410 ca         1 1O6      -0.099500
     26 C26         -8.0540    -4.8940     0.5520 ca         1 1O6      -0.182000
     27 C28          3.5700     0.0000     1.4430 c3         1 1O6      -0.088100
     28 C29         -2.5150    -4.0700     2.7620 c3         1 1O6      -0.111100
     29 C30         -2.1390    -4.6810     0.3700 c3         1 1O6      -0.111100
     30 H1          -0.3600    -0.0030    -1.0220 hc         1 1O6       0.053200
     31 H2          -0.3600     0.8840     0.5130 hc         1 1O6       0.053200
     32 H3           1.8890     0.8860    -0.5090 hc         1 1O6       0.035950
     33 H4           1.8890    -0.8860    -0.5090 hc         1 1O6       0.035950
     34 H5           1.6740     0.8830     1.9520 hc         1 1O6       0.048700
     35 H6           1.8880    -1.2450     3.1860 hc         1 1O6       0.035950
     36 H7           1.8890    -2.1330     1.6530 hc         1 1O6       0.035950
     37 H8          -0.3610    -0.3630     2.6730 hc         1 1O6       0.053200
     38 H9          -0.3600    -2.1360     2.6730 hc         1 1O6       0.053200
     39 H10         -0.1440    -2.1330     0.2120 hc         1 1O6       0.079700
     40 H11         -0.9110    -3.3500     1.5260 h1         1 1O6       0.056700
     41 H12         -6.5430    -2.8390    -1.4240 ha         1 1O6       0.172000
     42 H13         -6.8630    -2.1260     2.7810 ha         1 1O6       0.121000
     43 H14         -4.4140    -2.0620     2.9760 ha         1 1O6       0.122000
     44 H16        -10.7660    -2.9070     0.1580 ha         1 1O6       0.146500
     45 H17        -11.8530    -5.1100    -0.0470 ha         1 1O6       0.122000
     46 H18        -10.5120    -7.1700     0.1360 ha         1 1O6       0.116000
     47 H19         -8.0810    -7.0330     0.5190 ha         1 1O6       0.122000
     48 H20         -6.9850    -4.8340     0.7210 ha         1 1O6       0.146500
     49 H21          3.9310     0.8840     0.9330 hc         1 1O6       0.027367
     50 H22          3.9310    -0.8850     0.9330 hc         1 1O6       0.027367
     51 H23          3.9300     0.0010     2.4650 hc         1 1O6       0.027367
     52 H24         -1.7950    -4.7310     3.2300 hc         1 1O6       0.041533
     53 H25         -3.4430    -4.6040     2.5990 hc         1 1O6       0.041533
     54 H26         -2.6960    -3.2190     3.4080 hc         1 1O6       0.041533
     55 H27         -3.1950    -4.8640     0.2120 hc         1 1O6       0.041533
     56 H28         -1.6620    -5.5900     0.7140 hc         1 1O6       0.041533
     57 H29         -1.6840    -4.3650    -0.5620 hc         1 1O6       0.041533
@<TRIPOS>BOND
     1    27     3 1   
     2    25    24 ar  
     3    25    26 ar  
     4    24    23 ar  
     5    26    21 ar  
     6     3     2 1   
     7     3     4 1   
     8     2     1 1   
     9    23    22 ar  
    10    21    22 ar  
    11    21    20 1   
    12     4     5 1   
    13    20    14 1   
    14     1     6 1   
    15    13    14 ar  
    16    13    12 ar  
    17    14    15 ar  
    18     5     6 1   
    19     6     7 1   
    20    19    17 1   
    21    18    17 1   
    22    17    12 1   
    23    12    11 ar  
    24    15    16 ar  
    25    11    16 ar  
    26    11    10 1   
    27     7    10 1   
    28     7     8 2   
    29    10     9 1   
    30     9    28 1   
    31     9    29 1   
    32     1    30 1   
    33     1    31 1   
    34     2    32 1   
    35     2    33 1   
    36     3    34 1   
    37     4    35 1   
    38     4    36 1   
    39     5    37 1   
    40     5    38 1   
    41     6    39 1   
    42     9    40 1   
    43    13    41 1   
    44    15    42 1   
    45    16    43 1   
    46    22    44 1   
    47    23    45 1   
    48    24    46 1   
    49    25    47 1   
    50    26    48 1   
    51    27    49 1   
    52    27    50 1   
    53    27    51 1   
    54    28    52 1   
    55    28    53 1   
    56    28    54 1   
    57    29    55 1   
    58    29    56 1   
    59    29    57 1   
@<TRIPOS>SUBSTRUCTURE
     1 1O6         1 TEMP              0 ****  ****    0 ROOT
