@<TRIPOS>MOLECULE
1O8
   43    45     1     0     0
SMALL
bcc


@<TRIPOS>ATOM
      1 C2'          0.3110    -0.3970     0.1360 c3         1 1O8      -0.114000
      2 C1'          1.7630    -0.0550    -0.1240 c3         1 1O8      -0.145000
      3 C18          2.4950     0.2000     1.1760 c3         1 1O8      -0.097000
      4 C5           1.7840     1.1960     2.0220 ca         1 1O8      -0.136000
      5 C4           2.5120     1.9310     2.9630 ca         1 1O8      -0.129000
      6 C3           1.8830     2.8640     3.7810 ca         1 1O8      -0.199000
      7 C2           0.5060     3.0680     3.6550 ca         1 1O8      -0.142000
      8 C1          -0.2260     2.3460     2.7250 ca         1 1O8      -0.141000
      9 C6           0.3920     1.3910     1.8880 ca         1 1O8       0.097000
     10 C7          -0.4060     0.6530     0.9250 c2         1 1O8      -0.214000
     11 C8          -1.7160     0.9130     0.8120 c1         1 1O8      -0.437000
     12 C9          -2.6700     0.2700    -0.0950 c3         1 1O8      -0.016000
     13 C19         -2.6410     0.9130    -1.4740 c3         1 1O8      -0.188000
     14 C10         -4.0630     0.3410     0.4460 c2         1 1O8      -0.017000
     15 C11         -4.3620     0.9080     1.6330 c2         1 1O8      -0.181000
     16 C12         -5.6560     0.9640     2.1700 cu         1 1O8       0.054000
     17 C13         -6.4810     1.4480     3.3210 cx         1 1O8      -0.052000
     18 C20         -6.3890     0.8020     4.6600 c3         1 1O8      -0.201000
     19 C14         -6.9640     0.6970     2.1320 cu         1 1O8      -0.353000
     20 C15         -8.0990     0.1340     1.4880 c2         1 1O8       0.409000
     21 O1          -9.2770     0.1220     1.8620 o          1 1O8      -0.339000
     22 O2          -7.9250    -0.4950     0.2770 oh         1 1O8      -0.311000
     23 H1          -0.2070    -0.5500    -0.8480 hc         1 1O8       0.047500
     24 H2           0.2610    -1.3760     0.6870 hc         1 1O8       0.047500
     25 H3           2.2640    -0.8910    -0.6780 hc         1 1O8       0.056000
     26 H4           1.8210     0.8600    -0.7700 hc         1 1O8       0.056000
     27 H5           3.5390     0.5510     0.9590 hc         1 1O8       0.059500
     28 H6           2.5840    -0.7640     1.7480 hc         1 1O8       0.059500
     29 H7           3.5950     1.7680     3.0540 ha         1 1O8       0.097000
     30 H8           2.4630     3.4350     4.5180 ha         1 1O8       0.098000
     31 H9           0.0040     3.8050     4.2980 ha         1 1O8       0.100000
     32 H10         -1.3130     2.4930     2.6050 ha         1 1O8       0.161000
     33 H11         -2.4630    -0.8420    -0.2240 hc         1 1O8       0.043000
     34 H12         -2.8530     2.0050    -1.3970 hc         1 1O8       0.062000
     35 H13         -3.3990     0.4460    -2.1490 hc         1 1O8       0.062000
     36 H14         -1.6280     0.7810    -1.9250 hc         1 1O8       0.062000
     37 H15         -4.8430    -0.1120    -0.1900 ha         1 1O8       0.073000
     38 H16         -3.5280     1.3680     2.2120 ha         1 1O8       0.208000
     39 H17         -6.7080     2.5340     3.3920 hc         1 1O8       0.102000
     40 H18         -7.3610     0.9060     5.2020 hc         1 1O8       0.077333
     41 H19         -6.1490    -0.2860     4.5740 hc         1 1O8       0.077333
     42 H20         -5.5880     1.2920     5.2670 hc         1 1O8       0.077333
     43 H21         -6.9920    -0.4610     0.0260 ho         1 1O8       0.225000
@<TRIPOS>BOND
     1     1     2 1   
     2     1    10 1   
     3     1    23 1   
     4     1    24 1   
     5     2     3 1   
     6     2    25 1   
     7     2    26 1   
     8     3     4 1   
     9     3    27 1   
    10     3    28 1   
    11     4     5 1   
    12     4     9 1   
    13     5     6 1   
    14     5    29 1   
    15     6     7 1   
    16     6    30 1   
    17     7     8 1   
    18     7    31 1   
    19     8     9 1   
    20     8    32 1   
    21     9    10 1   
    22    10    11 1   
    23    11    12 1   
    24    12    13 1   
    25    12    14 1   
    26    12    33 1   
    27    13    34 1   
    28    13    35 1   
    29    13    36 1   
    30    14    15 1   
    31    14    37 1   
    32    15    16 1   
    33    15    38 1   
    34    16    17 1   
    35    16    19 1   
    36    17    18 1   
    37    17    19 1   
    38    17    39 1   
    39    18    40 1   
    40    18    41 1   
    41    18    42 1   
    42    19    20 1   
    43    20    21 1   
    44    20    22 1   
    45    22    43 1   
@<TRIPOS>SUBSTRUCTURE
     1 1O8         1 TEMP              0 ****  ****    0 ROOT
