@<TRIPOS>MOLECULE
molecule
   43    44     1     0     0
SMALL
bcc


@<TRIPOS>ATOM
      1 C2'          0.0000     0.0000     0.0000 c3         1 1O8      -0.035200
      2 C1'          1.5340     0.0000     0.0000 c3         1 1O8      -0.080400
      3 C18          2.0400     0.0000     1.4400 c3         1 1O8      -0.032100
      4 C5           1.4550    -1.1430     2.2230 ca         1 1O8      -0.075300
      5 C4           2.1150    -1.5950     3.3510 ca         1 1O8      -0.132000
      6 C3           1.5970    -2.6420     4.0910 ca         1 1O8      -0.138000
      7 C2           0.4130    -3.2500     3.7150 ca         1 1O8      -0.131000
      8 C1          -0.2600    -2.8150     2.5930 ca         1 1O8      -0.120000
      9 C6           0.2610    -1.7590     1.8380 ca         1 1O8      -0.025800
     10 C7          -0.4530    -1.2990     0.6330 ce         1 1O8      -0.104400
     11 C8          -1.4780    -2.0150     0.1100 cf         1 1O8      -0.131000
     12 C9          -2.2370    -1.4850    -0.9510 cf         1 1O8      -0.086200
     13 C19         -2.9580    -0.1730    -0.7800 c3         1 1O8      -0.023900
     14 C10         -2.3190    -2.1580    -2.1330 ce         1 1O8      -0.444000
     15 C11         -1.6490    -3.3810    -2.2930 ce         1 1O8      -0.256000
     16 C12         -1.7310    -4.0560    -3.4760 cf         1 1O8       0.033000
     17 C13         -1.0590    -5.2780    -3.6350 cf         1 1O8      -0.183200
     18 C20         -0.2470    -5.8450    -2.5000 c3         1 1O8      -0.031900
     19 C14         -1.1420    -5.9520    -4.8170 ce         1 1O8      -0.069200
     20 C15         -0.6160    -7.2560    -4.9240 c          1 1O8       0.845800
     21 O1          -0.1440    -7.8030    -3.9450 o          1 1O8      -0.824300
     22 O2          -0.6360    -7.8970    -6.1130 o          1 1O8      -0.824300
     23 H1          -0.3670     0.8380     0.5800 hc         1 1O8       0.052700
     24 H2          -0.3670     0.0600    -1.0180 hc         1 1O8       0.052700
     25 H3           1.8830     0.8990    -0.4930 hc         1 1O8       0.046200
     26 H4           1.8830    -0.8990    -0.4930 hc         1 1O8       0.046200
     27 H5           1.7370     0.9280     1.9100 hc         1 1O8       0.045700
     28 H6           3.1180    -0.1110     1.4240 hc         1 1O8       0.045700
     29 H7           3.0440    -1.1280     3.6550 ha         1 1O8       0.121000
     30 H8           2.1220    -2.9880     4.9730 ha         1 1O8       0.119000
     31 H9           0.0140    -4.0700     4.3010 ha         1 1O8       0.125000
     32 H10         -1.1880    -3.2890     2.2970 ha         1 1O8       0.138000
     33 H11         -1.7840    -2.9420     0.5800 ha         1 1O8       0.134000
     34 H12         -2.8760     0.1530     0.2500 hc         1 1O8       0.034033
     35 H13         -2.5140     0.5710    -1.4300 hc         1 1O8       0.034033
     36 H14         -4.0030    -0.2990    -1.0360 hc         1 1O8       0.034033
     37 H15         -1.2560    -2.2530    -2.3200 ha         1 1O8       0.345000
     38 H16         -1.0640    -3.7890    -1.4760 ha         1 1O8       0.112000
     39 H17         -2.3140    -3.6480    -4.2920 ha         1 1O8       0.138000
     40 H18          0.0550    -5.0440    -1.8370 hc         1 1O8       0.044367
     41 H19         -0.8450    -6.5620    -1.9510 hc         1 1O8       0.044367
     42 H20          0.6330    -6.3370    -2.8960 hc         1 1O8       0.044367
     43 H21         -1.7270    -5.5410    -5.6310 ha         1 1O8       0.112000
@<TRIPOS>BOND
     1    13    12 1
     2    14    12 2
     3    14    15 1
     4    16    15 2
     5    16    17 1
     6    12    11 1
     7    19    17 2
     8    19    20 1
     9    17    18 1
    10    21    20 1
    11    20    22 1
    12     1     2 1
    13     1    10 1
    14    11    10 2
    15     2     3 1
    16    10     9 1
    17     3     4 1
    18     9     4 ar
    19     9     8 ar
    20     4     5 ar
    21     8     7 ar
    22     5     6 ar
    23     7     6 ar
    24     1    23 1
    25     1    24 1
    26     2    25 1
    27     2    26 1
    28     3    27 1
    29     3    28 1
    30     5    29 1
    31     6    30 1
    32     7    31 1
    33     8    32 1
    34    11    33 1
    35    13    34 1
    36    13    35 1
    37    13    36 1
    38    14    37 1
    39    15    38 1
    40    16    39 1
    41    18    40 1
    42    18    41 1
    43    18    42 1
    44    19    43 1
@<TRIPOS>SUBSTRUCTURE
     1 1O8         1 TEMP              0 ****  ****    0 ROOT
