@<TRIPOS>MOLECULE
1O8
   43    44     1     0     0
SMALL
bcc


@<TRIPOS>ATOM
      1 C2'         0.7280   -0.4420    0.2140 c3        1 1O8     -0.036200
      2 C1'         2.1130   -0.6420    0.7930 c3        1 1O8     -0.073400
      3 C18         2.1200   -0.3990    2.2860 c3        1 1O8     -0.033100
      4 C5          0.9790   -1.0450    2.9910 ca        1 1O8     -0.070300
      5 C4          1.0500   -1.1800    4.3820 ca        1 1O8     -0.137000
      6 C3         -0.0060   -1.7310    5.1010 ca        1 1O8     -0.140000
      7 C2         -1.1540   -2.1470    4.4280 ca        1 1O8     -0.137000
      8 C1         -1.2340   -2.0220    3.0450 ca        1 1O8     -0.126000
      9 C6         -0.1700   -1.4860    2.3020 ca        1 1O8     -0.019800
     10 C7         -0.2500   -1.3770    0.8440 ce        1 1O8     -0.093400
     11 C8         -1.1240   -2.0960    0.1130 cf        1 1O8     -0.071000
     12 C9         -1.2960   -2.0150   -1.3330 cf        1 1O8     -0.156200
     13 C19        -1.8370   -0.7370   -1.8610 c3        1 1O8     -0.043900
     14 C10        -1.0550   -3.0600   -2.1530 ce        1 1O8     -0.070000
     15 C11        -0.5480   -4.3380   -1.7170 ce        1 1O8     -0.207000
     16 C12        -0.4610   -5.4410   -2.4850 cf        1 1O8     -0.053000
     17 C13        -0.8910   -5.6010   -3.8640 cf        1 1O8     -0.163200
     18 C20         0.0240   -6.4140   -4.7070 c3        1 1O8     -0.047900
     19 C14        -2.0430   -5.0890   -4.3310 ce        1 1O8     -0.143200
     20 C15        -2.5470   -5.1650   -5.7560 c         1 1O8      0.894800
     21 O1         -2.6000   -6.2840   -6.3420 o         1 1O8     -0.832300
     22 O2         -2.9150   -4.0740   -6.2780 o         1 1O8     -0.832300
     23 H1          0.3920    0.6160    0.3890 hc        1 1O8      0.052700
     24 H2          0.7630   -0.6070   -0.8960 hc        1 1O8      0.052700
     25 H3          2.4580   -1.6880    0.5770 hc        1 1O8      0.043200
     26 H4          2.8340    0.0590    0.2970 hc        1 1O8      0.043200
     27 H5          3.0880   -0.7670    2.7190 hc        1 1O8      0.041700
     28 H6          2.0690    0.7070    2.4830 hc        1 1O8      0.041700
     29 H7          1.9550   -0.8430    4.9100 ha        1 1O8      0.122000
     30 H8          0.0640   -1.8340    6.1930 ha        1 1O8      0.121000
     31 H9         -1.9970   -2.5740    4.9890 ha        1 1O8      0.124000
     32 H10        -2.1530   -2.3440    2.5310 ha        1 1O8      0.136000
     33 H11        -1.7870   -2.8350    0.5990 ha        1 1O8      0.122000
     34 H12        -1.3000    0.1370   -1.4150 hc        1 1O8      0.036033
     35 H13        -1.7420   -0.6860   -2.9730 hc        1 1O8      0.036033
     36 H14        -2.9220   -0.6470   -1.5990 hc        1 1O8      0.036033
     37 H15        -1.2370   -2.9550   -3.2410 ha        1 1O8      0.156000
     38 H16        -0.1920   -4.3820   -0.6730 ha        1 1O8      0.106000
     39 H17         0.0020   -6.3460   -2.0480 ha        1 1O8      0.102000
     40 H18         0.2550   -7.3870   -4.2070 hc        1 1O8      0.037033
     41 H19        -0.4510   -6.6270   -5.7010 hc        1 1O8      0.037033
     42 H20         0.9870   -5.8700   -4.8720 hc        1 1O8      0.037033
     43 H21        -2.7150   -4.5250   -3.6610 ha        1 1O8      0.104000
@<TRIPOS>BOND
     1    1    2 1   
     2    1   10 1   
     3    1   23 1   
     4    1   24 1   
     5    2    3 1   
     6    2   25 1   
     7    2   26 1   
     8    3    4 1   
     9    3   27 1   
    10    3   28 1   
    11    4    5 ar  
    12    4    9 ar  
    13    5    6 ar  
    14    5   29 1   
    15    6    7 ar  
    16    6   30 1   
    17    7    8 ar  
    18    7   31 1   
    19    8    9 ar  
    20    8   32 1   
    21    9   10 1   
    22   10   11 2   
    23   11   12 1   
    24   11   33 1   
    25   12   13 1   
    26   12   14 2   
    27   13   34 1   
    28   13   35 1   
    29   13   36 1   
    30   14   15 1   
    31   14   37 1   
    32   15   16 2   
    33   15   38 1   
    34   16   17 1   
    35   16   39 1   
    36   17   18 1   
    37   17   19 2   
    38   18   40 1   
    39   18   41 1   
    40   18   42 1   
    41   19   20 1   
    42   19   43 1   
    43   20   21 1   
    44   20   22 1   
@<TRIPOS>SUBSTRUCTURE
     1 1O8         1 TEMP              0 ****  ****    0 ROOT
