@<TRIPOS>MOLECULE
1O9
   66    69     1     0     0
SMALL
bcc


@<TRIPOS>ATOM
      1 N1           0.0000     0.0000     0.0000 n          1 1O9      -0.092800
      2 C2           1.4700     0.0000     0.0000 c3         1 1O9      -0.079600
      3 C3           1.9280     0.0000     1.4740 c3         1 1O9      -0.032400
      4 C4           0.6940     0.5720     2.2210 c3         1 1O9      -0.132000
      5 C5          -0.4730    -0.0250     1.3970 c3         1 1O9      -0.011600
      6 C6           1.9820    -1.2340    -0.6980 c          1 1O9       0.975600
      7 O7           2.9760    -1.7890    -0.2930 o          1 1O9      -0.872800
      8 O8           1.3340    -1.7140    -1.7710 o          1 1O9      -0.872800
      9 C9           1.9900     1.2520    -0.7070 c3         1 1O9      -0.036400
     10 C10          1.5720     2.4940     0.0830 c3         1 1O9      -0.076700
     11 C11          2.2880     3.7230    -0.4820 c3         1 1O9      -0.020100
     12 C12          0.0590     2.6880    -0.0350 c3         1 1O9      -0.020100
     13 C13         -0.7860     0.0250    -1.0940 c          1 1O9       0.613700
     14 O14         -0.2860     0.1200    -2.1990 o          1 1O9      -0.570100
     15 C15         -2.2550    -0.0610    -0.9520 ca         1 1O9      -0.115600
     16 C16         -2.8240    -0.3430     0.2900 ca         1 1O9      -0.113000
     17 C17         -4.1950    -0.4230     0.4150 ca         1 1O9      -0.118000
     18 C18         -5.0070    -0.2230    -0.6870 ca         1 1O9      -0.088300
     19 C19         -4.4490     0.0560    -1.9220 ca         1 1O9      -0.118000
     20 C20         -3.0790     0.1440    -2.0600 ca         1 1O9      -0.113000
     21 C21         -0.7580    -1.4400     1.8290 cc         1 1O9       0.400700
     22 S22         -2.1300    -1.9350     2.7200 ss         1 1O9      -0.360300
     23 C23         -1.5540    -3.6000     2.7000 cc         1 1O9      -0.131400
     24 C24         -0.3970    -3.6270     2.0310 cd         1 1O9       0.370200
     25 N25         -0.0020    -2.4560     1.5750 nd         1 1O9      -0.472000
     26 C26          0.6520     0.0850     3.6470 ca         1 1O9       0.282300
     27 N27          0.1690     0.8650     4.5980 nb         1 1O9      -0.554000
     28 C28          0.1310     0.4380     5.8480 ca         1 1O9       0.273900
     29 C29          0.6000    -0.8260     6.1610 ca         1 1O9       0.264900
     30 N30          1.0840    -1.6060     5.2100 nb         1 1O9      -0.554000
     31 C31          1.1160    -1.1800     3.9590 ca         1 1O9       0.275900
     32 C32         -6.5040    -0.3120    -0.5430 c3         1 1O9      -0.008700
     33 C33         -6.8870    -1.7080    -0.0470 c3         1 1O9       0.004233
     34 C34         -6.9820     0.7350     0.4650 c3         1 1O9       0.004233
     35 C35         -7.1640    -0.0530    -1.8990 c3         1 1O9       0.004233
     36 H1           2.7880     0.6460     1.6060 hc         1 1O9       0.048200
     37 H2           2.1420    -1.0080     1.8070 hc         1 1O9       0.048200
     38 H3           0.6840     1.6550     2.1740 hc         1 1O9       0.072700
     39 H4          -1.3580     0.5900     1.5020 h1         1 1O9       0.064700
     40 H6           1.5740     1.3020    -1.7050 hc         1 1O9       0.046200
     41 H7           3.0710     1.2100    -0.7670 hc         1 1O9       0.046200
     42 H8           1.8400     2.3670     1.1250 hc         1 1O9       0.031700
     43 H9           2.0100     4.5990     0.0910 hc         1 1O9       0.004033
     44 H10          2.0030     3.8640    -1.5180 hc         1 1O9       0.004033
     45 H11          3.3600     3.5770    -0.4200 hc         1 1O9       0.004033
     46 H12         -0.4460     2.0120     0.6440 hc         1 1O9       0.004033
     47 H13         -0.2540     2.4800    -1.0510 hc         1 1O9       0.004033
     48 H14         -0.1950     3.7110     0.2180 hc         1 1O9       0.004033
     49 H15         -2.1900    -0.5000     1.1540 ha         1 1O9       0.147500
     50 H16         -4.6370    -0.6420     1.3800 ha         1 1O9       0.109000
     51 H17         -5.0900     0.2140    -2.7810 ha         1 1O9       0.109000
     52 H18         -2.6440     0.3630    -3.0270 ha         1 1O9       0.147500
     53 H19         -2.0490    -4.4520     3.1510 h4         1 1O9       0.150000
     54 H20          0.1670    -4.5380     1.8730 h4         1 1O9       0.006100
     55 H21         -0.2650     1.0770     6.6270 h4         1 1O9      -0.020900
     56 H22          0.5710    -1.1760     7.1860 h4         1 1O9      -0.020900
     57 H23          1.5130    -1.8190     3.1790 h4         1 1O9       0.042100
     58 H24         -6.3910    -2.4560    -0.6540 hc         1 1O9       0.004922
     59 H25         -7.9600    -1.8360    -0.1220 hc         1 1O9       0.004922
     60 H26         -6.5810    -1.8210     0.9860 hc         1 1O9       0.004922
     61 H27         -6.5440     1.6960     0.2230 hc         1 1O9       0.004922
     62 H28         -6.6780     0.4420     1.4630 hc         1 1O9       0.004922
     63 H29         -8.0620     0.8090     0.4240 hc         1 1O9       0.004922
     64 H30         -6.8260    -0.7950    -2.6130 hc         1 1O9       0.004922
     65 H31         -6.8920     0.9350    -2.2490 hc         1 1O9       0.004922
     66 H32         -8.2400    -0.1160    -1.7950 hc         1 1O9       0.004922
@<TRIPOS>BOND
     1     1     2 1   
     2     1     5 1   
     3     1    13 1   
     4     2     3 1   
     5     2     6 1   
     6     2     9 1   
     7     3     4 1   
     8     3    36 1   
     9     3    37 1   
    10     4     5 1   
    11     4    26 1   
    12     4    38 1   
    13     5    21 1   
    14     5    39 1   
    15     6     7 1   
    16     6     8 1   
    17     9    10 1   
    18     9    40 1   
    19     9    41 1   
    20    10    11 1   
    21    10    12 1   
    22    10    42 1   
    23    11    43 1   
    24    11    44 1   
    25    11    45 1   
    26    12    46 1   
    27    12    47 1   
    28    12    48 1   
    29    13    14 2   
    30    13    15 1   
    31    15    16 ar  
    32    15    20 ar  
    33    16    17 ar  
    34    16    49 1   
    35    17    18 ar  
    36    17    50 1   
    37    18    19 ar  
    38    18    32 1   
    39    19    20 ar  
    40    19    51 1   
    41    20    52 1   
    42    21    22 1   
    43    21    25 2   
    44    22    23 1   
    45    23    24 2   
    46    23    53 1   
    47    24    25 1   
    48    24    54 1   
    49    26    27 ar  
    50    26    31 ar  
    51    27    28 ar  
    52    28    29 ar  
    53    28    55 1   
    54    29    30 ar  
    55    29    56 1   
    56    30    31 ar  
    57    31    57 1   
    58    32    33 1   
    59    32    34 1   
    60    32    35 1   
    61    33    58 1   
    62    33    59 1   
    63    33    60 1   
    64    34    61 1   
    65    34    62 1   
    66    34    63 1   
    67    35    64 1   
    68    35    65 1   
    69    35    66 1   
@<TRIPOS>SUBSTRUCTURE
     1 1O9         1 TEMP              0 ****  ****    0 ROOT
