@<TRIPOS>MOLECULE
1O9
   66    69     1     0     0
SMALL
bcc


@<TRIPOS>ATOM
      1 N1          -0.1420     0.8810    -0.0880 n          1 1O9      -0.439800
      2 C2           1.2080     0.2890    -0.2130 c3         1 1O9      -0.019600
      3 C3           1.7230     0.1190     1.2420 c3         1 1O9      -0.062400
      4 C4           0.7160     0.8500     2.1300 c3         1 1O9      -0.118000
      5 C5          -0.6040     0.8360     1.2850 c3         1 1O9       0.103400
      6 C6           1.1970    -1.1350    -0.9220 c          1 1O9       0.929600
      7 O7           0.1680    -1.4800    -1.5610 o          1 1O9      -0.820800
      8 O8           2.2520    -1.8110    -0.8090 o          1 1O9      -0.820800
      9 C9           2.1770     1.1410    -1.0450 c3         1 1O9      -0.074400
     10 C10          2.4310     2.5520    -0.5300 c3         1 1O9      -0.061700
     11 C11          1.8420     3.5860    -1.4690 c3         1 1O9      -0.087600
     12 C12          3.9150     2.8040    -0.3450 c3         1 1O9      -0.087600
     13 C13         -0.9760     0.9760    -1.2010 c          1 1O9       0.718700
     14 O14         -0.5400     1.4070    -2.2860 o          1 1O9      -0.584100
     15 C15         -2.4340     0.6540    -1.0910 ca         1 1O9      -0.127600
     16 C16         -2.8380    -0.6580    -1.3670 ca         1 1O9      -0.096000
     17 C17         -4.1960    -0.9650    -1.3950 ca         1 1O9      -0.146000
     18 C18         -5.1680     0.0190    -1.1520 ca         1 1O9      -0.074300
     19 C19         -4.7460     1.3230    -0.8750 ca         1 1O9      -0.146000
     20 C20         -3.3870     1.6410    -0.8490 ca         1 1O9      -0.096000
     21 C21         -1.4720    -0.3160     1.7170 cc         1 1O9       0.401700
     22 S22         -2.9940    -0.0050     2.5100 ss         1 1O9      -0.186300
     23 C23         -3.2580    -1.6500     2.6910 cc         1 1O9      -0.252400
     24 C24         -2.2060    -2.3680     2.1460 cd         1 1O9       0.331200
     25 N25         -1.1840    -1.6060     1.5960 nd         1 1O9      -0.556000
     26 C26          0.5410     0.3500     3.5290 ca         1 1O9       0.331300
     27 N27          0.9050    -0.9010     3.9000 nb         1 1O9      -0.592000
     28 C28          0.7200    -1.2260     5.1950 ca         1 1O9       0.282900
     29 C29          0.1780    -0.3200     6.1380 ca         1 1O9       0.253900
     30 N30         -0.1800     0.9330     5.7850 nb         1 1O9      -0.640000
     31 C31          0.0010     1.2610     4.4940 ca         1 1O9       0.264900
     32 C32         -6.6240    -0.3620    -1.2050 c3         1 1O9      -0.005700
     33 C33         -6.9040    -1.4490    -0.1710 c3         1 1O9      -0.083433
     34 C34         -6.9570    -0.8950    -2.5960 c3         1 1O9      -0.083433
     35 C35         -7.5460     0.8160    -0.9150 c3         1 1O9      -0.083433
     36 H1           1.7850    -0.9760     1.4700 hc         1 1O9       0.075200
     37 H2           2.7420     0.5600     1.3570 hc         1 1O9       0.075200
     38 H3           1.0340     1.9290     2.2230 hc         1 1O9       0.053700
     39 H4          -1.1980     1.7770     1.4840 h1         1 1O9       0.041700
     40 H6           3.1390     0.5590    -1.0730 hc         1 1O9       0.070700
     41 H7           1.7830     1.1840    -2.0960 hc         1 1O9       0.070700
     42 H8           1.9350     2.6750     0.4740 hc         1 1O9       0.033700
     43 H9           2.3960     3.5940    -2.4380 hc         1 1O9       0.025533
     44 H10          0.7710     3.3410    -1.6800 hc         1 1O9       0.025533
     45 H11          1.9030     4.6060    -1.0190 hc         1 1O9       0.025533
     46 H12          4.3400     2.0860     0.3980 hc         1 1O9       0.025533
     47 H13          4.4580     2.6710    -1.3120 hc         1 1O9       0.025533
     48 H14          4.0930     3.8440     0.0200 hc         1 1O9       0.025533
     49 H15         -2.0590    -1.4250    -1.5600 ha         1 1O9       0.168500
     50 H16         -4.5040    -1.9980    -1.6170 ha         1 1O9       0.122000
     51 H17         -5.4740     2.1230    -0.6800 ha         1 1O9       0.122000
     52 H18         -3.0710     2.6750    -0.6480 ha         1 1O9       0.168500
     53 H19         -4.1390    -2.0740     3.1620 h4         1 1O9       0.165000
     54 H20         -2.1100    -3.4590     2.1080 h4         1 1O9       0.039100
     55 H21          1.0160    -2.2490     5.4840 h4         1 1O9       0.028100
     56 H22          0.0320    -0.6010     7.1920 h4         1 1O9       0.020100
     57 H23         -0.2890     2.2830     4.1980 h4         1 1O9       0.027100
     58 H24         -6.2820    -2.3530    -0.3740 hc         1 1O9       0.032478
     59 H25         -7.9810    -1.7420    -0.2050 hc         1 1O9       0.032478
     60 H26         -6.6660    -1.0760     0.8540 hc         1 1O9       0.032478
     61 H27         -6.7530    -0.1140    -3.3670 hc         1 1O9       0.032478
     62 H28         -6.3380    -1.7940    -2.8300 hc         1 1O9       0.032478
     63 H29         -8.0350    -1.1800    -2.6490 hc         1 1O9       0.032478
     64 H30         -7.3510     1.2260     0.1040 hc         1 1O9       0.032478
     65 H31         -7.3960     1.6260    -1.6690 hc         1 1O9       0.032478
     66 H32         -8.6110     0.4830    -0.9640 hc         1 1O9       0.032478
@<TRIPOS>BOND
     1     1     2 1   
     2     1     5 1   
     3     1    13 1   
     4     2     3 1   
     5     2     6 1   
     6     2     9 1   
     7     3     4 1   
     8     3    36 1   
     9     3    37 1   
    10     4     5 1   
    11     4    26 1   
    12     4    38 1   
    13     5    21 1   
    14     5    39 1   
    15     6     7 1   
    16     6     8 1   
    17     9    10 1   
    18     9    40 1   
    19     9    41 1   
    20    10    11 1   
    21    10    12 1   
    22    10    42 1   
    23    11    43 1   
    24    11    44 1   
    25    11    45 1   
    26    12    46 1   
    27    12    47 1   
    28    12    48 1   
    29    13    14 2   
    30    13    15 1   
    31    15    16 ar  
    32    15    20 ar  
    33    16    17 ar  
    34    16    49 1   
    35    17    18 ar  
    36    17    50 1   
    37    18    19 ar  
    38    18    32 1   
    39    19    20 ar  
    40    19    51 1   
    41    20    52 1   
    42    21    22 1   
    43    21    25 2   
    44    22    23 1   
    45    23    24 2   
    46    23    53 1   
    47    24    25 1   
    48    24    54 1   
    49    26    27 ar  
    50    26    31 ar  
    51    27    28 ar  
    52    28    29 ar  
    53    28    55 1   
    54    29    30 ar  
    55    29    56 1   
    56    30    31 ar  
    57    31    57 1   
    58    32    33 1   
    59    32    34 1   
    60    32    35 1   
    61    33    58 1   
    62    33    59 1   
    63    33    60 1   
    64    34    61 1   
    65    34    62 1   
    66    34    63 1   
    67    35    64 1   
    68    35    65 1   
    69    35    66 1   
@<TRIPOS>SUBSTRUCTURE
     1 1O9         1 TEMP              0 ****  ****    0 ROOT
