@<TRIPOS>MOLECULE
1OA
   44    47     1     0     0
SMALL
bcc


@<TRIPOS>ATOM
      1 C1           0.4360    -0.1130     0.2970 ca         1 1OA      -0.150000
      2 C2           1.8080    -0.1520     0.4940 ca         1 1OA      -0.139500
      3 C3           2.3260    -0.3160     1.7900 ca         1 1OA       0.089900
      4 C4           1.4490    -0.4400     2.8800 ca         1 1OA      -0.139500
      5 C5           0.0740    -0.4010     2.6840 ca         1 1OA      -0.150000
      6 C6          -0.4620    -0.2370     1.3880 ca         1 1OA       0.064600
      7 N7          -1.8380    -0.1880     1.1160 ns         1 1OA      -0.461100
      8 C8          -2.8770    -0.2940     2.0290 c          1 1OA       0.728300
      9 O9          -2.6920    -0.4520     3.2550 o          1 1OA      -0.611100
     10 C10         -4.2420    -0.2140     1.5070 cc         1 1OA      -0.363800
     11 C11         -5.4100    -0.3100     2.3540 cc         1 1OA       0.465500
     12 N12         -6.5600    -0.2090     1.6490 nd         1 1OA      -0.590100
     13 N13         -6.1930    -0.0480     0.3570 na         1 1OA      -0.016800
     14 C14         -4.7480    -0.0420     0.1900 cd         1 1OA       0.448500
     15 N15         -4.1440     0.1070    -1.0300 nd         1 1OA      -0.694000
     16 C16         -4.9330     0.2510    -2.0980 cc         1 1OA       0.509600
     17 C17         -6.3650     0.2550    -2.0180 cc         1 1OA      -0.346300
     18 C18         -6.9830     0.1040    -0.7780 cd         1 1OA       0.264800
     19 O19         -8.3480     0.1120    -0.7330 oh         1 1OA      -0.473100
     20 C20         -4.3230     0.4190    -3.4690 c3         1 1OA      -0.119000
     21 C21         -3.4640     1.6750    -3.5420 c3         1 1OA      -0.073400
     22 C22         -2.8600     1.8160    -4.9400 c3         1 1OA       0.163800
     23 N23         -2.1330     0.6370    -5.3670 n7         1 1OA      -0.822200
     24 C24         -2.8870    -0.5960    -5.2480 c3         1 1OA       0.163800
     25 C25         -3.4920    -0.7970    -3.8580 c3         1 1OA      -0.073400
     26 F26          3.6670    -0.3550     1.9850 f          1 1OA      -0.144900
     27 H1           0.0530     0.0160    -0.7280 ha         1 1OA       0.159000
     28 H2           2.4950    -0.0560    -0.3590 ha         1 1OA       0.148000
     29 H3           1.8570    -0.5680     3.8940 ha         1 1OA       0.148000
     30 H4          -0.5890    -0.5000     3.5600 ha         1 1OA       0.159000
     31 H5          -2.0710    -0.0650     0.1550 hn         1 1OA       0.337500
     32 H6          -5.3950    -0.4480     3.4420 h4         1 1OA       0.081800
     33 H7          -6.9860     0.3760    -2.9140 ha         1 1OA       0.180000
     34 H9          -5.1660     0.5230    -4.2110 hc         1 1OA       0.060700
     35 H10         -2.6440     1.6250    -2.7800 hc         1 1OA       0.060200
     36 H11         -4.0860     2.5810    -3.3260 hc         1 1OA       0.060200
     37 H12         -3.6930     2.0840    -5.6570 h1         1 1OA       0.030700
     38 H13         -2.1290     2.6740    -4.9330 h1         1 1OA       0.030700
     39 H14         -1.8120     0.7530    -6.3090 hn         1 1OA       0.367800
     40 H16         -2.1750    -1.4430    -5.4580 h1         1 1OA       0.030700
     41 H17         -3.7240    -0.6560    -6.0060 h1         1 1OA       0.030700
     42 H18         -2.6730    -0.9580    -3.1090 hc         1 1OA       0.060200
     43 H19         -4.1340    -1.7140    -3.8740 hc         1 1OA       0.060200
     44 H8          -8.6740    -0.0000     0.1770 ho         1 1OA       0.466000
@<TRIPOS>BOND
     1     1     2 ar  
     2     1     6 ar  
     3     1    27 1   
     4     2     3 ar  
     5     2    28 1   
     6     3     4 ar  
     7     3    26 1   
     8     4     5 ar  
     9     4    29 1   
    10     5     6 ar  
    11     5    30 1   
    12     6     7 1   
    13     7     8 1   
    14     7    31 1   
    15     8     9 2   
    16     8    10 1   
    17    10    11 1   
    18    10    14 2   
    19    11    12 2   
    20    11    32 1   
    21    12    13 1   
    22    13    14 1   
    23    13    18 1   
    24    14    15 1   
    25    15    16 2   
    26    16    17 1   
    27    16    20 1   
    28    17    18 2   
    29    17    33 1   
    30    18    19 1   
    31    19    44 1   
    32    20    21 1   
    33    20    25 1   
    34    20    34 1   
    35    21    22 1   
    36    21    35 1   
    37    21    36 1   
    38    22    23 1   
    39    22    37 1   
    40    22    38 1   
    41    23    24 1   
    42    23    39 1   
    43    24    25 1   
    44    24    40 1   
    45    24    41 1   
    46    25    42 1   
    47    25    43 1   
@<TRIPOS>SUBSTRUCTURE
     1 1OA         1 TEMP              0 ****  ****    0 ROOT
