@<TRIPOS>MOLECULE
1OA
   44    47     1     0     0
SMALL
bcc


@<TRIPOS>ATOM
      1 C1           0.0000     0.0000     0.0000 ca         1 1OA      -0.096000
      2 C2           1.3810     0.0000     0.0000 ca         1 1OA      -0.115500
      3 C3           2.0740     0.0000     1.1990 ca         1 1OA       0.086900
      4 C4           1.3850     0.0000     2.3990 ca         1 1OA      -0.115500
      5 C5           0.0040     0.0010     2.4040 ca         1 1OA      -0.096000
      6 C6          -0.6940     0.0060     1.2030 ca         1 1OA      -0.095400
      7 N7          -2.0930     0.0060     1.2050 ns         1 1OA      -0.041100
      8 C8          -2.7680     0.6810     0.2540 c          1 1OA       0.631300
      9 O9          -2.1640     1.2200    -0.6560 o          1 1OA      -0.628100
     10 C10         -4.2300     0.7660     0.3130 cc         1 1OA      -0.438800
     11 C11         -5.0630     0.2050     1.2990 cc         1 1OA       0.511500
     12 N12         -6.3040     0.4970     1.0160 nd         1 1OA      -0.720100
     13 N13         -6.3490     1.2590    -0.1560 na         1 1OA       0.512200
     14 C14         -5.0690     1.4320    -0.6010 cd         1 1OA       0.269500
     15 N15         -4.8190     2.1300    -1.7090 nd         1 1OA      -0.509000
     16 C16         -5.7980     2.6670    -2.4090 cc         1 1OA       0.417600
     17 C17         -7.1200     2.5110    -1.9970 cc         1 1OA      -0.294300
     18 C18         -7.3880     1.8030    -0.8580 cd         1 1OA       0.066800
     19 O19         -8.6610     1.6420    -0.4330 oh         1 1OA      -0.462100
     20 C20         -5.4880     3.4500    -3.6580 c3         1 1OA      -0.099000
     21 C21         -5.8780     4.9160    -3.4520 c3         1 1OA      -0.022400
     22 C22         -5.5030     5.7190    -4.7010 c3         1 1OA       0.148300
     23 N23         -4.0590     5.6060    -4.9410 n7         1 1OA      -0.576200
     24 C24         -3.6690     4.2130    -5.1890 c3         1 1OA       0.148300
     25 C25         -3.9880     3.3660    -3.9560 c3         1 1OA      -0.022400
     26 F26          3.4250    -0.0010     1.1970 f          1 1OA      -0.130900
     27 H1          -0.5420     0.0020    -0.9380 ha         1 1OA       0.129000
     28 H2           1.9230    -0.0030    -0.9380 ha         1 1OA       0.118000
     29 H3           1.9290    -0.0020     3.3360 ha         1 1OA       0.118000
     30 H4          -0.5350     0.0030     3.3440 ha         1 1OA       0.129000
     31 H5          -2.5920    -0.5180     1.8960 hn         1 1OA       0.165500
     32 H6          -4.7290    -0.3750     2.1510 h4         1 1OA       0.010800
     33 H7          -7.9270     2.9520    -2.5700 ha         1 1OA       0.145000
     34 H9          -6.0450     3.0430    -4.4940 hc         1 1OA       0.034700
     35 H10         -5.3460     5.3140    -2.5950 hc         1 1OA       0.032950
     36 H11         -6.9460     4.9860    -3.2850 hc         1 1OA       0.032950
     37 H12         -6.0420     5.3260    -5.5550 h1         1 1OA       0.004700
     38 H13         -5.7630     6.7600    -4.5510 h1         1 1OA       0.004700
     39 H14         -3.8070     6.1690    -5.7290 hn         1 1OA       0.250800
     40 H16         -2.6060     4.1670    -5.3910 h1         1 1OA       0.004700
     41 H17         -4.2200     3.8310    -6.0400 h1         1 1OA       0.004700
     42 H18         -3.4300     3.7420    -3.1060 hc         1 1OA       0.032950
     43 H19         -3.7160     2.3350    -4.1460 hc         1 1OA       0.032950
     44 H8          -9.0910     0.9930    -0.9660 ho         1 1OA       0.420000
@<TRIPOS>BOND
     1     1     2 ar  
     2     1     6 ar  
     3     1    27 1   
     4     2     3 ar  
     5     2    28 1   
     6     3     4 ar  
     7     3    26 1   
     8     4     5 ar  
     9     4    29 1   
    10     5     6 ar  
    11     5    30 1   
    12     6     7 1   
    13     7     8 1   
    14     7    31 1   
    15     8     9 2   
    16     8    10 1   
    17    10    11 1   
    18    10    14 2   
    19    11    12 2   
    20    11    32 1   
    21    12    13 1   
    22    13    14 1   
    23    13    18 1   
    24    14    15 1   
    25    15    16 2   
    26    16    17 1   
    27    16    20 1   
    28    17    18 2   
    29    17    33 1   
    30    18    19 1   
    31    19    44 1   
    32    20    21 1   
    33    20    25 1   
    34    20    34 1   
    35    21    22 1   
    36    21    35 1   
    37    21    36 1   
    38    22    23 1   
    39    22    37 1   
    40    22    38 1   
    41    23    24 1   
    42    23    39 1   
    43    24    25 1   
    44    24    40 1   
    45    24    41 1   
    46    25    42 1   
    47    25    43 1   
@<TRIPOS>SUBSTRUCTURE
     1 1OA         1 TEMP              0 ****  ****    0 ROOT
