@<TRIPOS>MOLECULE
1OB
   43    47     1     0     0
SMALL
bcc


@<TRIPOS>ATOM
      1 C1           0.0000     0.0000     0.0000 ca         1 1OB      -0.078500
      2 C2           1.3790     0.0000     0.0000 ca         1 1OB      -0.061500
      3 C3           2.0740     0.0000     1.2120 ca         1 1OB       0.038000
      4 C4           1.3650     0.0000     2.4150 ca         1 1OB      -0.061500
      5 C5          -0.0140    -0.0000     2.4000 ca         1 1OB      -0.078500
      6 C6          -0.6950    -0.0000     1.1960 ca         1 1OB      -0.067000
      7 C7          -2.2020     0.0010     1.1870 c3         1 1OB      -0.143000
      8 C8          -2.7050    -1.4200     1.1850 c3         1 1OB      -0.066000
      9 C9          -4.0760    -1.6720     1.1780 c2         1 1OB      -0.270000
     10 C10         -4.5190    -2.9670     1.1740 c2         1 1OB       0.086000
     11 N11         -3.6020    -3.9800     1.1780 na         1 1OB       0.355000
     12 C12         -2.2680    -3.6860     1.1860 c2         1 1OB      -0.059000
     13 N13         -1.8480    -2.4200     1.1840 n2         1 1OB      -0.052000
     14 C14         -1.5830    -4.9160     1.1900 c2         1 1OB      -0.325000
     15 C15         -2.5600    -5.9290     1.1840 c2         1 1OB       0.015000
     16 N16         -3.7420    -5.3720     1.1830 n2         1 1OB      -0.251000
     17 C17         -0.1310    -5.1050     1.1970 c2         1 1OB       0.301000
     18 O18          0.6090    -4.1370     1.2010 o          1 1OB      -0.385000
     19 N19          0.3870    -6.3500     1.2000 ns         1 1OB       0.111000
     20 C20          1.7720    -6.5310     1.1090 ca         1 1OB      -0.091000
     21 C21          2.6340    -5.6260     1.7140 ca         1 1OB      -0.099000
     22 C22          4.0000    -5.8070     1.6230 ca         1 1OB      -0.112500
     23 C23          4.5100    -6.8910     0.9290 ca         1 1OB       0.054000
     24 C24          3.6540    -7.7950     0.3250 ca         1 1OB      -0.112500
     25 C25          2.2860    -7.6210     0.4190 ca         1 1OB      -0.099000
     26 F26          5.8470    -7.0670     0.8410 f          1 1OB      -0.095000
     27 O27         -5.8430    -3.2380     1.1670 oh         1 1OB      -0.212000
     28 C28          3.5050    -0.0010     1.2190 c1         1 1OB      -0.092000
     29 N29          4.6410     0.0050     1.2440 n1         1 1OB      -0.063000
     30 H1          -0.5420    -0.0000    -0.9380 ha         1 1OB       0.105000
     31 H2           1.9210     0.0000    -0.9380 ha         1 1OB       0.111500
     32 H3           1.8990     0.0000     3.3580 ha         1 1OB       0.111500
     33 H4          -0.5650    -0.0000     3.3320 ha         1 1OB       0.105000
     34 H5          -2.5690    -0.2170     2.1830 hc         1 1OB       0.141000
     35 H6          -2.5600    -0.7540     0.4970 DU         1 1OB       0.234000
     36 H7          -4.7780    -0.8480     1.2290 ha         1 1OB       0.164000
     37 H9          -2.3710    -6.9940     1.1190 h4         1 1OB       0.143000
     38 H10         -0.2200    -7.1440     1.1500 hn         1 1OB       0.077000
     39 H11          2.2340    -4.7770     2.2560 ha         1 1OB       0.128500
     40 H12          4.6720    -5.1000     2.0950 ha         1 1OB       0.119500
     41 H13          4.0550    -8.6430    -0.2170 ha         1 1OB       0.119500
     42 H14          1.6150    -8.3310    -0.0490 ha         1 1OB       0.128500
     43 H8          -6.0960    -3.5440     0.3120 ho         1 1OB       0.226000
@<TRIPOS>BOND
     1     1     2 1   
     2     1     6 1   
     3     1    30 1   
     4     2     3 1   
     5     2    31 1   
     6     3     4 1   
     7     3    28 1   
     8     4     5 1   
     9     4    32 1   
    10     5     6 1   
    11     5    33 1   
    12     6     7 1   
    13     7     8 1   
    14     7    34 1   
    15     7    35 1   
    16     8     9 1   
    17     8    13 1   
    18     8    35 1   
    19     9    10 1   
    20     9    36 1   
    21    10    11 1   
    22    10    27 1   
    23    11    12 1   
    24    11    16 1   
    25    12    13 1   
    26    12    14 1   
    27    14    15 1   
    28    14    17 1   
    29    15    16 1   
    30    15    37 1   
    31    17    18 1   
    32    17    19 1   
    33    19    20 1   
    34    19    38 1   
    35    20    21 1   
    36    20    25 1   
    37    21    22 1   
    38    21    39 1   
    39    22    23 1   
    40    22    40 1   
    41    23    24 1   
    42    23    26 1   
    43    24    25 1   
    44    24    41 1   
    45    25    42 1   
    46    27    43 1   
    47    28    29 1   
@<TRIPOS>SUBSTRUCTURE
     1 1OB         1 TEMP              0 ****  ****    0 ROOT
