@<TRIPOS>MOLECULE
1OB
   43    46     1     0     0
SMALL
bcc


@<TRIPOS>ATOM
      1 C1          -0.5260     1.4530     0.2480 ca         1 1OB      -0.121500
      2 C2           0.8090     1.7760     0.0170 ca         1 1OB      -0.092500
      3 C3           1.8240     0.9940     0.5860 ca         1 1OB      -0.008000
      4 C4           1.4920    -0.1110     1.3830 ca         1 1OB      -0.092500
      5 C5           0.1550    -0.4250     1.6110 ca         1 1OB      -0.121500
      6 C6          -0.8630     0.3520     1.0450 ca         1 1OB      -0.063300
      7 C7          -2.2930     0.0280     1.3070 c3         1 1OB      -0.094400
      8 C8          -2.7880    -1.1370     0.4890 cc         1 1OB       0.510600
      9 C9          -3.9890    -0.9460    -0.2720 cc         1 1OB      -0.409300
     10 C10         -4.4970    -2.0010    -1.0250 cd         1 1OB       0.271800
     11 N11         -3.8360    -3.2210    -1.0290 na         1 1OB       0.020200
     12 C12         -2.6200    -3.3290    -0.2280 cd         1 1OB       0.435500
     13 N13         -2.1220    -2.2910     0.5160 nd         1 1OB      -0.692000
     14 C14         -2.1840    -4.6630    -0.4280 cc         1 1OB      -0.352800
     15 C15         -3.1610    -5.2530    -1.3210 cc         1 1OB       0.446500
     16 N16         -4.1310    -4.3770    -1.6650 nd         1 1OB      -0.530100
     17 C17         -1.0370    -5.4010     0.1030 c          1 1OB       0.727300
     18 O18         -0.9360    -6.6290    -0.1010 o          1 1OB      -0.604100
     19 N19         -0.0950    -4.6760     0.8210 ns         1 1OB      -0.463100
     20 C20          1.0770    -5.1650     1.4160 ca         1 1OB       0.065600
     21 C21          1.9740    -4.2280     1.9890 ca         1 1OB      -0.151000
     22 C22          3.1440    -4.6440     2.6050 ca         1 1OB      -0.138500
     23 C23          3.4550    -6.0140     2.6660 ca         1 1OB       0.091900
     24 C24          2.5770    -6.9540     2.1020 ca         1 1OB      -0.138500
     25 C25          1.4040    -6.5370     1.4860 ca         1 1OB      -0.151000
     26 F26          4.5980    -6.4230     3.2680 f          1 1OB      -0.143900
     27 O27         -5.6340    -1.9270    -1.7840 oh         1 1OB      -0.451100
     28 C28          3.1870     1.3210     0.3540 cg         1 1OB       0.228800
     29 N29          4.3030     1.5910     0.1640 n1         1 1OB      -0.352800
     30 H1          -1.3190     2.0710    -0.2000 ha         1 1OB       0.143500
     31 H2           1.0660     2.6420    -0.6100 ha         1 1OB       0.148000
     32 H3           2.2880    -0.7280     1.8290 ha         1 1OB       0.148000
     33 H4          -0.1020    -1.2960     2.2350 ha         1 1OB       0.143500
     34 H5          -2.4270    -0.2240     2.3970 hc         1 1OB       0.074700
     35 H6          -2.9340     0.9240     1.0870 hc         1 1OB       0.074700
     36 H7          -4.5030     0.0220    -0.2640 ha         1 1OB       0.164000
     37 H9          -3.1410    -6.2850    -1.6880 h4         1 1OB       0.082800
     38 H10         -0.2240    -3.6910     0.8970 hn         1 1OB       0.334500
     39 H11          1.7510    -3.1490     1.9510 ha         1 1OB       0.154500
     40 H12          3.8340    -3.9100     3.0460 ha         1 1OB       0.148000
     41 H13          2.8230    -8.0250     2.1500 ha         1 1OB       0.148000
     42 H14          0.7340    -7.2980     1.0510 ha         1 1OB       0.154500
     43 H8          -5.9860    -1.0250    -1.6890 ho         1 1OB       0.448000
@<TRIPOS>BOND
     1     1     2 ar  
     2     1     6 ar  
     3     1    30 1   
     4     2     3 ar  
     5     2    31 1   
     6     3     4 ar  
     7     3    28 1   
     8     4     5 ar  
     9     4    32 1   
    10     5     6 ar  
    11     5    33 1   
    12     6     7 1   
    13     7     8 1   
    14     7    34 1   
    15     7    35 1   
    16     8     9 1   
    17     8    13 2   
    18     9    10 2   
    19     9    36 1   
    20    10    11 1   
    21    10    27 1   
    22    11    12 1   
    23    11    16 1   
    24    12    13 1   
    25    12    14 2   
    26    14    15 1   
    27    14    17 1   
    28    15    16 2   
    29    15    37 1   
    30    17    18 2   
    31    17    19 1   
    32    19    20 1   
    33    19    38 1   
    34    20    21 ar  
    35    20    25 ar  
    36    21    22 ar  
    37    21    39 1   
    38    22    23 ar  
    39    22    40 1   
    40    23    24 ar  
    41    23    26 1   
    42    24    25 ar  
    43    24    41 1   
    44    25    42 1   
    45    27    43 1   
    46    28    29 3   
@<TRIPOS>SUBSTRUCTURE
     1 1OB         1 TEMP              0 ****  ****    0 ROOT
