@<TRIPOS>MOLECULE
molecule
   43    46     1     0     0
SMALL
bcc


@<TRIPOS>ATOM
      1 C1           0.0000     0.0000     0.0000 ca         1 1OB      -0.109000
      2 C2           1.3790     0.0000     0.0000 ca         1 1OB      -0.080500
      3 C3           2.0740     0.0000     1.2120 ca         1 1OB      -0.010000
      4 C4           1.3650     0.0000     2.4150 ca         1 1OB      -0.080500
      5 C5          -0.0140    -0.0000     2.4000 ca         1 1OB      -0.109000
      6 C6          -0.6950    -0.0000     1.1960 ca         1 1OB      -0.064300
      7 C7          -2.2020     0.0010     1.1870 c3         1 1OB      -0.186400
      8 C8          -2.7050    -1.4200     1.1850 cc         1 1OB       0.423600
      9 C9          -4.0760    -1.6720     1.1780 cc         1 1OB      -0.377300
     10 C10         -4.5190    -2.9670     1.1740 cd         1 1OB       0.272800
     11 N11         -3.6020    -3.9800     1.1780 na         1 1OB      -0.004800
     12 C12         -2.2680    -3.6860     1.1860 cd         1 1OB       0.487500
     13 N13         -1.8480    -2.4200     1.1840 nd         1 1OB      -0.700000
     14 C14         -1.5830    -4.9160     1.1900 cc         1 1OB      -0.397800
     15 C15         -2.5600    -5.9290     1.1840 cc         1 1OB       0.445500
     16 N16         -3.7420    -5.3720     1.1830 nd         1 1OB      -0.563100
     17 C17         -0.1310    -5.1050     1.1970 c          1 1OB       0.709300
     18 O18          0.6090    -4.1370     1.2010 o          1 1OB      -0.579100
     19 N19          0.3870    -6.3500     1.2000 ns         1 1OB      -0.474100
     20 C20          1.7720    -6.5310     1.1090 ca         1 1OB       0.045600
     21 C21          2.6340    -5.6260     1.7140 ca         1 1OB      -0.124500
     22 C22          4.0000    -5.8070     1.6230 ca         1 1OB      -0.149500
     23 C23          4.5100    -6.8910     0.9290 ca         1 1OB       0.113900
     24 C24          3.6540    -7.7950     0.3250 ca         1 1OB      -0.149500
     25 C25          2.2860    -7.6210     0.4190 ca         1 1OB      -0.124500
     26 F26          5.8470    -7.0670     0.8410 f          1 1OB      -0.142900
     27 O27         -5.8430    -3.2380     1.1670 oh         1 1OB      -0.477100
     28 C28          3.5050    -0.0010     1.2190 cg         1 1OB       0.242800
     29 N29          4.6410     0.0050     1.2440 n1         1 1OB      -0.367800
     30 H1          -0.5420    -0.0000    -0.9380 ha         1 1OB       0.133500
     31 H2           1.9210     0.0000    -0.9380 ha         1 1OB       0.142500
     32 H3           1.8990     0.0000     3.3580 ha         1 1OB       0.142500
     33 H4          -0.5650    -0.0000     3.3320 ha         1 1OB       0.133500
     34 H5          -2.5690    -0.2170     2.1830 hc         1 1OB       0.177700
     35 H6          -2.5600    -0.7540     0.4970 hc         1 1OB       0.177700
     36 H7          -4.7780    -0.8480     1.2290 ha         1 1OB       0.190000
     37 H9          -2.3710    -6.9940     1.1190 h4         1 1OB       0.064800
     38 H10         -0.2200    -7.1440     1.1500 hn         1 1OB       0.316500
     39 H11          2.2340    -4.7770     2.2560 ha         1 1OB       0.153000
     40 H12          4.6720    -5.1000     2.0950 ha         1 1OB       0.148000
     41 H13          4.0550    -8.6430    -0.2170 ha         1 1OB       0.148000
     42 H14          1.6150    -8.3310    -0.0490 ha         1 1OB       0.153000
     43 H8          -6.0960    -3.5440     0.3120 ho         1 1OB       0.452000
@<TRIPOS>BOND
     1    18    17 2
     2    15    16 2
     3    15    14 1
     4    25    24 ar
     5    25    20 ar
     6    24    23 ar
     7    17    14 1
     8    17    19 1
     9    16    11 1
    10    14    12 2
    11    20    19 1
    12    20    21 ar
    13    23    26 1
    14    23    22 ar
    15    11    12 1
    16    11    10 1
    17    12    13 1
    18    21    22 ar
    19    27    10 1
    20    10     9 2
    21    13     8 2
    22     9     8 1
    23     8     7 1
    24     7     6 1
    25     1     6 ar
    26     1     2 ar
    27     6     5 ar
    28     2     3 ar
    29     5     4 ar
    30     3     4 ar
    31     3    28 1
    32    28    29 3
    33     1    30 1
    34     2    31 1
    35     4    32 1
    36     5    33 1
    37     7    34 1
    38     7    35 1
    39     9    36 1
    40    15    37 1
    41    19    38 1
    42    21    39 1
    43    22    40 1
    44    24    41 1
    45    25    42 1
    46    27    43 1
@<TRIPOS>SUBSTRUCTURE
     1 1OB         1 TEMP              0 ****  ****    0 ROOT
