@<TRIPOS>MOLECULE
1OC
   61    66     1     0     0
SMALL
bcc


@<TRIPOS>ATOM
      1 C1           0.0000     0.0000     0.0000 ca         1 1OC      -0.113000
      2 C2           1.3830     0.0000     0.0000 ca         1 1OC      -0.080000
      3 C3           2.0800     0.0000     1.1940 ca         1 1OC      -0.131000
      4 C4           1.3960    -0.0030     2.3970 ca         1 1OC       0.110900
      5 C5           0.0010    -0.0020     2.4010 cp         1 1OC      -0.043000
      6 C6          -0.6940     0.0040     1.1940 ca         1 1OC      -0.073000
      7 C7          -0.7400    -0.0040     3.6870 cp         1 1OC      -0.196300
      8 C8          -1.7620     0.9160     3.9140 ca         1 1OC      -0.007000
      9 C9          -2.4240     0.8680     5.1400 ca         1 1OC      -0.233100
     10 C10         -3.5170     1.6400     5.7420 cc         1 1OC      -0.139600
     11 C11         -3.7290     1.1260     6.9680 cd         1 1OC      -0.287100
     12 N12         -2.8550     0.0880     7.1940 na         1 1OC       0.261900
     13 C14         -2.0460    -0.0940     6.0980 ca         1 1OC       0.243800
     14 N15         -1.0660    -0.9480     5.8310 nb         1 1OC      -0.577000
     15 C16         -0.4250    -0.9320     4.6830 ca         1 1OC       0.435200
     16 N17         -4.2120     2.7110     5.1500 ns         1 1OC       0.004900
     17 C18         -5.1990     3.3290     5.8280 c          1 1OC       0.632300
     18 O19         -5.4920     2.9600     6.9500 o          1 1OC      -0.653100
     19 C20         -5.9220     4.4450     5.2120 cc         1 1OC      -0.468800
     20 C21         -5.7050     4.9780     3.9270 cc         1 1OC       0.519500
     21 N22         -6.5410     5.9620     3.7340 nd         1 1OC      -0.746100
     22 N23         -7.3430     6.1240     4.8700 na         1 1OC       0.503200
     23 C24         -6.9710     5.1860     5.7900 cd         1 1OC       0.313500
     24 N25         -7.5810     5.1080     6.9730 nd         1 1OC      -0.622000
     25 C26         -8.5630     5.9370     7.2840 cc         1 1OC       0.526200
     26 C27         -8.9750     6.9160     6.3580 cc         1 1OC      -0.294300
     27 C28         -8.3500     6.9990     5.1600 cd         1 1OC      -0.124300
     28 N29         -9.1840     5.8430     8.5140 nu         1 1OC      -0.489900
     29 C30         -8.7560     4.8250     9.4760 c3         1 1OC       0.163800
     30 C31         -9.6000     4.9360    10.7470 c3         1 1OC      -0.096700
     31 C32         -9.2390     3.7960    11.7030 c3         1 1OC      -0.010400
     32 C33        -10.0410     3.9470    12.9970 c3         1 1OC       0.141800
     33 N34         -9.7340     5.2440    13.6160 n7         1 1OC      -0.570200
     34 C35        -10.1170     6.3550    12.7360 c3         1 1OC       0.118800
     35 C36         -9.3160     6.2760    11.4340 c3         1 1OC       0.176600
     36 F37         -9.6940     7.3230    10.5880 f          1 1OC      -0.235300
     37 F38          2.0770    -0.0030     3.5630 f          1 1OC      -0.125900
     38 H1          -0.5400     0.0020    -0.9390 ha         1 1OC       0.106000
     39 H2           1.9230    -0.0010    -0.9390 ha         1 1OC       0.105000
     40 H3           3.1630    -0.0000     1.1890 ha         1 1OC       0.118000
     41 H4          -1.7780     0.0040     1.1910 ha         1 1OC       0.113000
     42 H5          -1.8510     1.7930     3.2840 ha         1 1OC       0.106000
     43 H6          -4.4750     1.4760     7.6700 h4         1 1OC       0.203000
     44 H7          -2.8150    -0.4560     8.0330 hn         1 1OC       0.120700
     45 H8           0.3620    -1.6560     4.5050 h4         1 1OC      -0.013900
     46 H9          -3.9930     2.9940     4.2150 hn         1 1OC       0.159500
     47 H10         -4.9650     4.6300     3.2160 h4         1 1OC       0.006800
     48 H11         -9.7780     7.6000     6.6050 ha         1 1OC       0.133000
     49 H12         -8.6530     7.7450     4.4360 h4         1 1OC       0.143000
     50 H13         -9.9410     6.4580     8.7400 hn         1 1OC       0.313800
     51 H14         -7.7120     4.9760     9.7210 h1         1 1OC       0.040200
     52 H15         -8.8860     3.8410     9.0420 h1         1 1OC       0.040200
     53 H16        -10.6520     4.8760    10.4960 hc         1 1OC       0.040700
     54 H17         -9.4790     2.8470    11.2390 hc         1 1OC       0.031200
     55 H18         -8.1800     3.8370    11.9290 hc         1 1OC       0.031200
     56 H19         -9.7750     3.1510    13.6810 h1         1 1OC       0.010200
     57 H20        -11.1000     3.8980    12.7720 h1         1 1OC       0.010200
     58 H21        -10.2240     5.3230    14.4850 hn         1 1OC       0.258800
     59 H23         -9.9060     7.2950    13.2310 h1         1 1OC       0.018700
     60 H24        -11.1750     6.2890    12.5120 h1         1 1OC       0.018700
     61 H25         -8.2590     6.3490    11.6570 h1         1 1OC       0.049700
@<TRIPOS>BOND
     1     1     2 ar  
     2     1     6 ar  
     3     1    38 1   
     4     2     3 ar  
     5     2    39 1   
     6     3     4 ar  
     7     3    40 1   
     8     4     5 ar  
     9     4    37 1   
    10     5     6 ar  
    11     5     7 1   
    12     6    41 1   
    13     7     8 ar  
    14     7    15 ar  
    15     8     9 ar  
    16     8    42 1   
    17     9    10 1   
    18     9    13 ar  
    19    10    11 2   
    20    10    16 1   
    21    11    12 1   
    22    11    43 1   
    23    12    13 1   
    24    12    44 1   
    25    13    14 ar  
    26    14    15 ar  
    27    15    45 1   
    28    16    17 1   
    29    16    46 1   
    30    17    18 2   
    31    17    19 1   
    32    19    20 1   
    33    19    23 2   
    34    20    21 2   
    35    20    47 1   
    36    21    22 1   
    37    22    23 1   
    38    22    27 1   
    39    23    24 1   
    40    24    25 2   
    41    25    26 1   
    42    25    28 1   
    43    26    27 2   
    44    26    48 1   
    45    27    49 1   
    46    28    29 1   
    47    28    50 1   
    48    29    30 1   
    49    29    51 1   
    50    29    52 1   
    51    30    31 1   
    52    30    35 1   
    53    30    53 1   
    54    31    32 1   
    55    31    54 1   
    56    31    55 1   
    57    32    33 1   
    58    32    56 1   
    59    32    57 1   
    60    33    34 1   
    61    33    58 1   
    62    34    35 1   
    63    34    59 1   
    64    34    60 1   
    65    35    36 1   
    66    35    61 1   
@<TRIPOS>SUBSTRUCTURE
     1 1OC         1 TEMP              0 ****  ****    0 ROOT
