@<TRIPOS>MOLECULE
1OC
   61    66     1     0     0
SMALL
bcc


@<TRIPOS>ATOM
      1 C1           0.5490     0.6940     0.2720 ca         1 1OC      -0.150000
      2 C2           1.9140     0.9360     0.4260 ca         1 1OC      -0.107000
      3 C3           2.4840     0.9310     1.6940 ca         1 1OC      -0.164000
      4 C4           1.6820     0.6800     2.8240 ca         1 1OC       0.132900
      5 C5           0.2950     0.4340     2.6800 cp         1 1OC      -0.046000
      6 C6          -0.2470     0.4480     1.3870 ca         1 1OC      -0.109000
      7 C7          -0.5700     0.1680     3.8220 cp         1 1OC      -0.203300
      8 C8          -1.8060     0.8010     3.9490 ca         1 1OC      -0.028000
      9 C9          -2.5930     0.4950     5.0570 ca         1 1OC      -0.224100
     10 C10         -3.8870     0.9250     5.5650 cc         1 1OC       0.014400
     11 C11         -4.1130     0.2220     6.7610 cd         1 1OC      -0.124100
     12 N12         -3.0350    -0.6270     7.0290 na         1 1OC      -0.278100
     13 C14         -2.0850    -0.4790     6.0170 ca         1 1OC       0.439800
     14 N15         -0.8740    -1.1080     5.8970 nb         1 1OC      -0.671000
     15 C16         -0.1630    -0.7660     4.8230 ca         1 1OC       0.440200
     16 N17         -4.7120     1.8580     4.9520 ns         1 1OC      -0.445100
     17 C18         -5.8330     2.4080     5.5610 c          1 1OC       0.725300
     18 O19         -6.2040     2.0330     6.6960 o          1 1OC      -0.626100
     19 C20         -6.5640     3.4440     4.8430 cc         1 1OC      -0.377800
     20 C21         -7.5650     4.2790     5.4750 cc         1 1OC       0.454500
     21 N22         -8.1120     5.1600     4.6090 nd         1 1OC      -0.568100
     22 N23         -7.5120     4.9370     3.4160 na         1 1OC       0.012200
     23 C24         -6.5290     3.8690     3.4870 cd         1 1OC       0.456500
     24 N25         -5.8090     3.4400     2.4080 nd         1 1OC      -0.753000
     25 C26         -6.0370     4.0680     1.2260 cc         1 1OC       0.707200
     26 C27         -7.0130     5.1490     1.1020 cc         1 1OC      -0.348300
     27 C28         -7.7270     5.5560     2.2030 cd         1 1OC       0.039700
     28 N29         -5.3010     3.7420     0.0970 nu         1 1OC      -0.845900
     29 C30         -4.5040     2.5400     0.0450 c3         1 1OC       0.207800
     30 C31         -3.8560     2.3010    -1.3260 c3         1 1OC      -0.106700
     31 C32         -2.8140     1.2040    -1.1740 c3         1 1OC      -0.080400
     32 C33         -2.1750     0.8480    -2.5140 c3         1 1OC       0.158800
     33 N34         -3.1550     0.5040    -3.5240 n7         1 1OC      -0.819200
     34 C35         -4.1680     1.5160    -3.7130 c3         1 1OC       0.136800
     35 C36         -4.8900     1.8800    -2.3880 c3         1 1OC       0.162600
     36 F37         -5.8020     2.8960    -2.6440 f          1 1OC      -0.251300
     37 F38          2.2650     0.6840     4.0460 f          1 1OC      -0.134900
     38 H1           0.0990     0.6920    -0.7330 ha         1 1OC       0.131000
     39 H2           2.5430     1.1300    -0.4550 ha         1 1OC       0.137000
     40 H3           3.5580     1.1230     1.8300 ha         1 1OC       0.150000
     41 H4          -1.3230     0.2480     1.2610 ha         1 1OC       0.137000
     42 H5          -2.1490     1.5300     3.2000 ha         1 1OC       0.135000
     43 H6          -4.9710     0.2860     7.4380 h4         1 1OC       0.207000
     44 H7          -2.9380    -1.1980     7.8270 hn         1 1OC       0.312700
     45 H8           0.8230    -1.2600     4.7330 h4         1 1OC       0.029100
     46 H9          -4.4180     2.1900     4.0640 hn         1 1OC       0.337500
     47 H10         -7.8640     4.2210     6.5270 h4         1 1OC       0.075800
     48 H11         -7.1760     5.6400     0.1340 ha         1 1OC       0.165000
     49 H12         -8.4790     6.3660     2.1700 h4         1 1OC       0.186000
     50 H13         -5.6880     4.0520    -0.7700 hn         1 1OC       0.441800
     51 H14         -5.1270     1.6370     0.3140 h1         1 1OC       0.059200
     52 H15         -3.6870     2.6320     0.8180 h1         1 1OC       0.059200
     53 H16         -3.3520     3.2430    -1.6790 hc         1 1OC       0.073700
     54 H17         -2.0060     1.5470    -0.4750 hc         1 1OC       0.060200
     55 H18         -3.2900     0.2920    -0.7250 hc         1 1OC       0.060200
     56 H19         -1.5100    -0.0510    -2.3710 h1         1 1OC       0.035700
     57 H20         -1.5180     1.7110    -2.8320 h1         1 1OC       0.035700
     58 H21         -2.7030     0.3010    -4.3960 hn         1 1OC       0.375800
     59 H23         -4.9350     1.1100    -4.4310 h1         1 1OC       0.045700
     60 H24         -3.7600     2.4740    -4.1510 h1         1 1OC       0.045700
     61 H25         -5.4640     0.9840    -2.0140 h1         1 1OC       0.073700
@<TRIPOS>BOND
     1     1     2 ar  
     2     1     6 ar  
     3     1    38 1   
     4     2     3 ar  
     5     2    39 1   
     6     3     4 ar  
     7     3    40 1   
     8     4     5 ar  
     9     4    37 1   
    10     5     6 ar  
    11     5     7 1   
    12     6    41 1   
    13     7     8 ar  
    14     7    15 ar  
    15     8     9 ar  
    16     8    42 1   
    17     9    10 1   
    18     9    13 ar  
    19    10    11 2   
    20    10    16 1   
    21    11    12 1   
    22    11    43 1   
    23    12    13 1   
    24    12    44 1   
    25    13    14 ar  
    26    14    15 ar  
    27    15    45 1   
    28    16    17 1   
    29    16    46 1   
    30    17    18 2   
    31    17    19 1   
    32    19    20 1   
    33    19    23 2   
    34    20    21 2   
    35    20    47 1   
    36    21    22 1   
    37    22    23 1   
    38    22    27 1   
    39    23    24 1   
    40    24    25 2   
    41    25    26 1   
    42    25    28 1   
    43    26    27 2   
    44    26    48 1   
    45    27    49 1   
    46    28    29 1   
    47    28    50 1   
    48    29    30 1   
    49    29    51 1   
    50    29    52 1   
    51    30    31 1   
    52    30    35 1   
    53    30    53 1   
    54    31    32 1   
    55    31    54 1   
    56    31    55 1   
    57    32    33 1   
    58    32    56 1   
    59    32    57 1   
    60    33    34 1   
    61    33    58 1   
    62    34    35 1   
    63    34    59 1   
    64    34    60 1   
    65    35    36 1   
    66    35    61 1   
@<TRIPOS>SUBSTRUCTURE
     1 1OC         1 TEMP              0 ****  ****    0 ROOT
