@<TRIPOS>MOLECULE
1OD
   79    82     1     0     0
SMALL
bcc


@<TRIPOS>ATOM
      1 O34          0.0000     0.0000     0.0000 o          1 1OD      -0.624100
      2 C33          1.2160     0.0000     0.0000 c          1 1OD       0.597700
      3 C35          1.9530     0.0000     1.2780 ca         1 1OD      -0.171600
      4 C40          3.3520     0.0050     1.2810 ca         1 1OD      -0.083000
      5 C39          4.0370     0.0100     2.4770 ca         1 1OD      -0.110500
      6 C38          3.3490     0.0110     3.6790 ca         1 1OD      -0.116500
      7 C37          1.9630     0.0040     3.6910 ca         1 1OD       0.052100
      8 O41          1.2940     0.0040     4.8740 oh         1 1OD      -0.492100
      9 C36          1.2580    -0.0000     2.4920 ca         1 1OD       0.183600
     10 O42         -0.1000    -0.0000     2.5000 oh         1 1OD      -0.449600
     11 N32          1.8900    -0.0060    -1.1680 ns         1 1OD      -0.211400
     12 C31          1.1580    -0.0130    -2.4360 c3         1 1OD       0.058000
     13 C30          2.1510    -0.0180    -3.5990 c3         1 1OD      -0.076400
     14 C29          1.3860    -0.0250    -4.9240 c3         1 1OD       0.049500
     15 N14          2.3380    -0.0200    -6.0380 n          1 1OD      -0.164800
     16 C12          2.8740    -1.1780    -6.4720 c          1 1OD       0.598100
     17 O13          2.5020    -2.2310    -6.0020 o          1 1OD      -0.609100
     18 C10          3.9360    -1.1620    -7.5410 c3         1 1OD       0.003500
     19 C9           3.3280    -1.4810    -8.9280 c3         1 1OD       0.158100
     20 C43          3.1100    -0.2020    -9.7400 c3         1 1OD      -0.010100
     21 O8           4.3660    -2.2950    -9.5130 os         1 1OD      -0.411400
     22 N11          4.8850    -2.2780    -7.3570 n2         1 1OD      -0.573900
     23 C7           5.0630    -2.8570    -8.5040 ce         1 1OD       0.651200
     24 C1           5.9500    -4.0240    -8.6890 ca         1 1OD      -0.150900
     25 C6           6.6450    -4.5590    -7.5990 ca         1 1OD       0.182100
     26 O44          6.5080    -4.0060    -6.3660 oh         1 1OD      -0.428100
     27 C5           7.4760    -5.6590    -7.7840 ca         1 1OD       0.032100
     28 O45          8.1540    -6.1840    -6.7290 oh         1 1OD      -0.493100
     29 C4           7.6120    -6.2200    -9.0430 ca         1 1OD      -0.127000
     30 C3           6.9240    -5.6900   -10.1220 ca         1 1OD      -0.120000
     31 C2           6.0930    -4.6040    -9.9520 ca         1 1OD      -0.062000
     32 C15          2.7070     1.2440    -6.6790 c3         1 1OD       0.049500
     33 C16          3.9230     1.8430    -5.9670 c3         1 1OD      -0.076400
     34 C17          4.3080     3.1630    -6.6370 c3         1 1OD       0.058000
     35 N18          5.4700     3.7350    -5.9550 ns         1 1OD      -0.211400
     36 C19          5.9910     4.9050    -6.3760 c          1 1OD       0.597700
     37 O20          5.4930     5.4860    -7.3210 o          1 1OD      -0.624100
     38 C21          7.1620     5.4830    -5.6890 ca         1 1OD      -0.171600
     39 C26          7.7010     6.7010    -6.1200 ca         1 1OD       0.183600
     40 O27          7.1500     7.3550    -7.1740 oh         1 1OD      -0.449600
     41 C25          8.8020     7.2370    -5.4610 ca         1 1OD       0.052100
     42 O28          9.3310     8.4210    -5.8720 oh         1 1OD      -0.492100
     43 C24          9.3600     6.5680    -4.3850 ca         1 1OD      -0.116500
     44 C23          8.8270     5.3620    -3.9590 ca         1 1OD      -0.110500
     45 C22          7.7360     4.8170    -4.6020 ca         1 1OD      -0.083000
     46 H1           3.8960     0.0050     0.3440 ha         1 1OD       0.103500
     47 H2           5.1200     0.0140     2.4770 ha         1 1OD       0.106500
     48 H3           3.8960     0.0140     4.6140 ha         1 1OD       0.111500
     49 H4           1.5340    -0.7600     5.3710 ho         1 1OD       0.410000
     50 H5          -0.4120     0.7360     2.9990 ho         1 1OD       0.408500
     51 H6           2.8910     0.0090    -1.1680 hn         1 1OD       0.178500
     52 H7           0.5350    -0.8970    -2.4890 h1         1 1OD       0.026950
     53 H8           0.5350     0.8720    -2.4980 h1         1 1OD       0.026950
     54 H9           2.7740    -0.9030    -3.5370 hc         1 1OD       0.028950
     55 H10          2.7730     0.8660    -3.5460 hc         1 1OD       0.028950
     56 H11          0.7700    -0.9140    -4.9800 h1         1 1OD       0.035700
     57 H12          0.7570     0.8550    -4.9820 h1         1 1OD       0.035700
     58 H13          4.4590    -0.2130    -7.5600 h1         1 1OD       0.058700
     59 H14          2.4090    -2.0450    -8.8250 h1         1 1OD       0.046700
     60 H15          3.0150    -0.4530   -10.7900 hc         1 1OD       0.018700
     61 H16          3.9550     0.4610    -9.6020 hc         1 1OD       0.018700
     62 H17          2.2060     0.2900    -9.4020 hc         1 1OD       0.018700
     63 H18          7.1960    -4.3200    -5.8030 ho         1 1OD       0.404000
     64 H19          8.2330    -7.1170    -6.8390 ho         1 1OD       0.413000
     65 H20          8.2620    -7.0760    -9.1840 ha         1 1OD       0.108000
     66 H21          7.0350    -6.1360   -11.1030 ha         1 1OD       0.108000
     67 H22          5.5580    -4.1940   -10.8000 ha         1 1OD       0.117000
     68 H23          2.9520     1.0630    -7.7190 h1         1 1OD       0.035700
     69 H24          1.8760     1.9360    -6.6190 h1         1 1OD       0.035700
     70 H25          4.7540     1.1510    -6.0290 hc         1 1OD       0.028950
     71 H26          3.6790     2.0230    -4.9270 hc         1 1OD       0.028950
     72 H27          3.4770     3.8550    -6.5770 h1         1 1OD       0.026950
     73 H28          4.5520     2.9820    -7.6770 h1         1 1OD       0.026950
     74 H29          5.8710     3.2640    -5.1680 hn         1 1OD       0.178500
     75 H30          7.8150     7.5210    -7.8230 ho         1 1OD       0.408500
     76 H31          9.3190     9.0360    -5.1580 ho         1 1OD       0.410000
     77 H32         10.2180     6.9880    -3.8740 ha         1 1OD       0.111500
     78 H33          9.2690     4.8450    -3.1170 ha         1 1OD       0.106500
     79 H34          7.3230     3.8740    -4.2650 ha         1 1OD       0.103500
@<TRIPOS>BOND
     1     1     2 2   
     2     2     3 1   
     3     2    11 1   
     4     3     4 ar  
     5     3     9 ar  
     6     4     5 ar  
     7     4    46 1   
     8     5     6 ar  
     9     5    47 1   
    10     6     7 ar  
    11     6    48 1   
    12     7     8 1   
    13     7     9 ar  
    14     8    49 1   
    15     9    10 1   
    16    10    50 1   
    17    11    12 1   
    18    11    51 1   
    19    12    13 1   
    20    12    52 1   
    21    12    53 1   
    22    13    14 1   
    23    13    54 1   
    24    13    55 1   
    25    14    15 1   
    26    14    56 1   
    27    14    57 1   
    28    15    16 1   
    29    15    32 1   
    30    16    17 2   
    31    16    18 1   
    32    18    19 1   
    33    18    22 1   
    34    18    58 1   
    35    19    20 1   
    36    19    21 1   
    37    19    59 1   
    38    20    60 1   
    39    20    61 1   
    40    20    62 1   
    41    21    23 1   
    42    22    23 2   
    43    23    24 1   
    44    24    25 ar  
    45    24    31 ar  
    46    25    26 1   
    47    25    27 ar  
    48    26    63 1   
    49    27    28 1   
    50    27    29 ar  
    51    28    64 1   
    52    29    30 ar  
    53    29    65 1   
    54    30    31 ar  
    55    30    66 1   
    56    31    67 1   
    57    32    33 1   
    58    32    68 1   
    59    32    69 1   
    60    33    34 1   
    61    33    70 1   
    62    33    71 1   
    63    34    35 1   
    64    34    72 1   
    65    34    73 1   
    66    35    36 1   
    67    35    74 1   
    68    36    37 2   
    69    36    38 1   
    70    38    39 ar  
    71    38    45 ar  
    72    39    40 1   
    73    39    41 ar  
    74    40    75 1   
    75    41    42 1   
    76    41    43 ar  
    77    42    76 1   
    78    43    44 ar  
    79    43    77 1   
    80    44    45 ar  
    81    44    78 1   
    82    45    79 1   
@<TRIPOS>SUBSTRUCTURE
     1 1OD         1 TEMP              0 ****  ****    0 ROOT
