@<TRIPOS>MOLECULE
1OD
   82    85     1     0     0
SMALL
bcc


@<TRIPOS>ATOM
      1 O34          0.0060    -1.2860    -0.2100 o          1 1OD      -0.401600
      2 C33          1.0970    -0.8090     0.0570 c          1 1OD       0.592700
      3 C35          1.7630    -0.7130     1.3530 ca         1 1OD      -0.206100
      4 C40          0.9230    -0.7240     2.4850 ca         1 1OD      -0.041500
      5 C39          1.4630    -0.6810     3.7680 ca         1 1OD      -0.097500
      6 C38          2.8430    -0.6430     3.9570 ca         1 1OD      -0.085000
      7 C37          3.6910    -0.6380     2.8410 ca         1 1OD       0.062100
      8 O41          5.0660    -0.6250     2.9220 oh         1 1OD      -0.528600
      9 C36          3.1600    -0.6620     1.5340 ca         1 1OD       0.122100
     10 O42          3.9970    -0.6180     0.4380 oh         1 1OD      -0.573100
     11 N32          1.8520    -0.2060    -1.1310 ny         1 1OD      -0.683800
     12 C31          0.9420     0.2370    -2.2200 c3         1 1OD       0.109300
     13 C30          1.5850     1.1480    -3.2590 c3         1 1OD      -0.127900
     14 C29          2.5460     0.3740    -4.1580 c3         1 1OD       0.106300
     15 N14          2.9890     1.1300    -5.3660 nx         1 1OD      -0.587200
     16 C12          3.3310     0.2150    -6.5590 c          1 1OD       0.545100
     17 O13          2.7180     0.5220    -7.5660 o          1 1OD      -0.382100
     18 C10          4.3530    -0.9000    -6.4410 c3         1 1OD       0.031500
     19 C9           3.8290    -2.1970    -7.1720 c3         1 1OD       0.129100
     20 C43          4.7500    -2.6530    -8.2730 c3         1 1OD      -0.124100
     21 O8           3.8260    -3.1870    -6.0980 os         1 1OD      -0.408400
     22 N11          4.6670    -1.3150    -5.0850 n2         1 1OD      -0.735900
     23 C7           4.3450    -2.5890    -4.9520 ce         1 1OD       0.730200
     24 C1           4.4600    -3.4570    -3.7850 ca         1 1OD      -0.155900
     25 C6           4.5000    -2.9430    -2.4750 ca         1 1OD       0.094100
     26 O44          4.3160    -1.5890    -2.2360 oh         1 1OD      -0.561100
     27 C5           4.6650    -3.8250    -1.3890 ca         1 1OD       0.062100
     28 O45          4.7320    -3.2310    -0.1450 oh         1 1OD      -0.540100
     29 C4           4.7630    -5.2070    -1.5950 ca         1 1OD      -0.118000
     30 C3           4.6890    -5.7080    -2.8920 ca         1 1OD      -0.088000
     31 C2           4.5390    -4.8450    -3.9790 ca         1 1OD      -0.063000
     32 C15          4.0400     2.1630    -5.1140 c3         1 1OD       0.106300
     33 C16          5.3260     1.7050    -4.4380 c3         1 1OD      -0.127900
     34 C17          6.2790     2.8990    -4.3370 c3         1 1OD       0.109300
     35 N18          7.3060     2.7410    -3.2690 ny         1 1OD      -0.683800
     36 C19          8.1540     1.4760    -3.4230 c          1 1OD       0.592700
     37 O20          8.4900     1.2080    -4.5640 o          1 1OD      -0.401600
     38 C21          8.4820     0.7890    -2.1750 ca         1 1OD      -0.206100
     39 C26          7.5320     0.5230    -1.1710 ca         1 1OD       0.122100
     40 O27          6.2270     0.9400    -1.3490 oh         1 1OD      -0.573100
     41 C25          7.9110    -0.2080    -0.0270 ca         1 1OD       0.062100
     42 O28          6.8830    -0.4840     0.8480 oh         1 1OD      -0.528600
     43 C24          9.2330    -0.6360     0.1410 ca         1 1OD      -0.085000
     44 C23         10.1690    -0.3620    -0.8570 ca         1 1OD      -0.097500
     45 C22          9.8020     0.3270    -2.0110 ca         1 1OD      -0.041500
     46 H1          -0.1720    -0.7760     2.3490 ha         1 1OD       0.185500
     47 H2           0.7890    -0.6860     4.6450 ha         1 1OD       0.196000
     48 H3           3.2660    -0.6180     4.9770 ha         1 1OD       0.184500
     49 H4           5.3120    -0.6820     3.8610 ho         1 1OD       0.464500
     50 H5           4.8070    -1.1150     0.6680 ho         1 1OD       0.478000
     51 H6           2.4080     0.5820    -0.7830 hn         1 1OD       0.471300
     52 H7           0.5110    -0.6870    -2.7080 hx         1 1OD       0.126450
     53 H8           0.0800     0.7950    -1.7410 hx         1 1OD       0.126450
     54 H9           2.1130     2.0070    -2.7670 hc         1 1OD       0.098450
     55 H10          0.7330     1.5810    -3.8580 hc         1 1OD       0.098450
     56 H11          3.4520     0.0590    -3.5600 hx         1 1OD       0.115700
     57 H12          2.0270    -0.5600    -4.5280 hx         1 1OD       0.115700
     58 H13          5.2850    -0.5100    -6.9530 h1         1 1OD       0.143700
     59 H14          2.7660    -2.1110    -7.5170 h1         1 1OD       0.111700
     60 H15          4.4270    -3.6630    -8.6360 hc         1 1OD       0.084033
     61 H16          5.8050    -2.7320    -7.9160 hc         1 1OD       0.084033
     62 H17          4.6990    -1.9350    -9.1280 hc         1 1OD       0.084033
     63 H18          4.9850    -1.3310    -1.5790 ho         1 1OD       0.442000
     64 H19          4.9260    -3.9240     0.5070 ho         1 1OD       0.456000
     65 H20          4.8920    -5.8900    -0.7380 ha         1 1OD       0.176000
     66 H21          4.7540    -6.7970    -3.0640 ha         1 1OD       0.188000
     67 H22          4.4840    -5.2550    -5.0040 ha         1 1OD       0.185000
     68 H23          4.2910     2.6150    -6.1220 hx         1 1OD       0.115700
     69 H24          3.5580     2.9640    -4.4780 hx         1 1OD       0.115700
     70 H25          5.8320     0.9000    -5.0370 hc         1 1OD       0.098450
     71 H26          5.1080     1.2770    -3.4210 hc         1 1OD       0.098450
     72 H27          6.8250     3.0250    -5.3210 hx         1 1OD       0.126450
     73 H28          5.7130     3.8520    -4.1190 hx         1 1OD       0.126450
     74 H29          6.8490     2.7240    -2.3480 hn         1 1OD       0.471300
     75 H30          5.7520     0.8060    -0.5070 ho         1 1OD       0.478000
     76 H31          7.2510    -0.6350     1.7340 ho         1 1OD       0.464500
     77 H32          9.5280    -1.1880     1.0500 ha         1 1OD       0.184500
     78 H33         11.2140    -0.7030    -0.7350 ha         1 1OD       0.196000
     79 H34         10.5490     0.5120    -2.8040 ha         1 1OD       0.185500
     80 H322         2.5180    -0.9230    -1.4710 hn         1 1OD       0.471300
     81 H182         7.9400     3.5520    -3.3050 hn         1 1OD       0.471300
     82 H141         2.1630     1.6760    -5.6910 hn         1 1OD       0.460800
@<TRIPOS>BOND
     1     1     2 2   
     2     2     3 1   
     3     2    11 1   
     4     3     4 ar  
     5     3     9 ar  
     6     4     5 ar  
     7     4    46 1   
     8     5     6 ar  
     9     5    47 1   
    10     6     7 ar  
    11     6    48 1   
    12     7     8 1   
    13     7     9 ar  
    14     8    49 1   
    15     9    10 1   
    16    10    50 1   
    17    11    12 1   
    18    11    51 1   
    19    11    80 1   
    20    12    13 1   
    21    12    52 1   
    22    12    53 1   
    23    13    14 1   
    24    13    54 1   
    25    13    55 1   
    26    14    15 1   
    27    14    56 1   
    28    14    57 1   
    29    15    16 1   
    30    15    32 1   
    31    15    82 1   
    32    16    17 2   
    33    16    18 1   
    34    18    19 1   
    35    18    22 1   
    36    18    58 1   
    37    19    20 1   
    38    19    21 1   
    39    19    59 1   
    40    20    60 1   
    41    20    61 1   
    42    20    62 1   
    43    21    23 1   
    44    22    23 2   
    45    23    24 1   
    46    24    25 ar  
    47    24    31 ar  
    48    25    26 1   
    49    25    27 ar  
    50    26    63 1   
    51    27    28 1   
    52    27    29 ar  
    53    28    64 1   
    54    29    30 ar  
    55    29    65 1   
    56    30    31 ar  
    57    30    66 1   
    58    31    67 1   
    59    32    33 1   
    60    32    68 1   
    61    32    69 1   
    62    33    34 1   
    63    33    70 1   
    64    33    71 1   
    65    34    35 1   
    66    34    72 1   
    67    34    73 1   
    68    35    36 1   
    69    35    74 1   
    70    35    81 1   
    71    36    37 2   
    72    36    38 1   
    73    38    39 ar  
    74    38    45 ar  
    75    39    40 1   
    76    39    41 ar  
    77    40    75 1   
    78    41    42 1   
    79    41    43 ar  
    80    42    76 1   
    81    43    44 ar  
    82    43    77 1   
    83    44    45 ar  
    84    44    78 1   
    85    45    79 1   
@<TRIPOS>SUBSTRUCTURE
     1 1OD         1 TEMP              0 ****  ****    0 ROOT
