@<TRIPOS>MOLECULE
molecule
   79    82     1     0     0
SMALL
bcc


@<TRIPOS>ATOM
      1 O34          0.0000     0.0000     0.0000 o          1 1OD      -0.579100
      2 C33          1.2160     0.0000     0.0000 c          1 1OD       0.673200
      3 C35          1.9530     0.0000     1.2780 ca         1 1OD      -0.154600
      4 C40          3.3520     0.0050     1.2810 ca         1 1OD      -0.102000
      5 C39          4.0370     0.0100     2.4770 ca         1 1OD      -0.137500
      6 C38          3.3490     0.0110     3.6790 ca         1 1OD      -0.137500
      7 C37          1.9630     0.0040     3.6910 ca         1 1OD       0.045600
      8 O41          1.2940     0.0040     4.8740 oh         1 1OD      -0.514100
      9 C36          1.2580    -0.0000     2.4920 ca         1 1OD       0.167600
     10 O42         -0.1000    -0.0000     2.5000 oh         1 1OD      -0.473600
     11 N32          1.8900    -0.0060    -1.1680 ns         1 1OD      -0.589900
     12 C31          1.1580    -0.0130    -2.4360 c3         1 1OD       0.116000
     13 C30          2.1510    -0.0180    -3.5990 c3         1 1OD      -0.129400
     14 C29          1.3860    -0.0250    -4.9240 c3         1 1OD       0.108000
     15 N14          2.3380    -0.0200    -6.0380 n          1 1OD      -0.497800
     16 C12          2.8740    -1.1780    -6.4720 c          1 1OD       0.675100
     17 O13          2.5020    -2.2310    -6.0020 o          1 1OD      -0.571100
     18 C10          3.9360    -1.1620    -7.5410 c3         1 1OD      -0.003500
     19 C9           3.3280    -1.4810    -8.9280 c3         1 1OD       0.118100
     20 C43          3.1100    -0.2020    -9.7400 c3         1 1OD      -0.096100
     21 O8           4.3660    -2.2950    -9.5130 os         1 1OD      -0.435400
     22 N11          4.8850    -2.2780    -7.3570 n2         1 1OD      -0.594900
     23 C7           5.0630    -2.8570    -8.5040 ce         1 1OD       0.642200
     24 C1           5.9500    -4.0240    -8.6890 ca         1 1OD      -0.131900
     25 C6           6.6450    -4.5590    -7.5990 ca         1 1OD       0.174100
     26 O44          6.5080    -4.0060    -6.3660 oh         1 1OD      -0.450100
     27 C5           7.4760    -5.6590    -7.7840 ca         1 1OD       0.021100
     28 O45          8.1540    -6.1840    -6.7290 oh         1 1OD      -0.517100
     29 C4           7.6120    -6.2200    -9.0430 ca         1 1OD      -0.146000
     30 C3           6.9240    -5.6900   -10.1220 ca         1 1OD      -0.148000
     31 C2           6.0930    -4.6040    -9.9520 ca         1 1OD      -0.081000
     32 C15          2.7070     1.2440    -6.6790 c3         1 1OD       0.108000
     33 C16          3.9230     1.8430    -5.9670 c3         1 1OD      -0.129400
     34 C17          4.3080     3.1630    -6.6370 c3         1 1OD       0.116000
     35 N18          5.4700     3.7350    -5.9550 ns         1 1OD      -0.589900
     36 C19          5.9910     4.9050    -6.3760 c          1 1OD       0.673200
     37 O20          5.4930     5.4860    -7.3210 o          1 1OD      -0.579100
     38 C21          7.1620     5.4830    -5.6890 ca         1 1OD      -0.154600
     39 C26          7.7010     6.7010    -6.1200 ca         1 1OD       0.167600
     40 O27          7.1500     7.3550    -7.1740 oh         1 1OD      -0.473600
     41 C25          8.8020     7.2370    -5.4610 ca         1 1OD       0.045600
     42 O28          9.3310     8.4210    -5.8720 oh         1 1OD      -0.514100
     43 C24          9.3600     6.5680    -4.3850 ca         1 1OD      -0.137500
     44 C23          8.8270     5.3620    -3.9590 ca         1 1OD      -0.137500
     45 C22          7.7360     4.8170    -4.6020 ca         1 1OD      -0.102000
     46 H1           3.8960     0.0050     0.3440 ha         1 1OD       0.130000
     47 H2           5.1200     0.0140     2.4770 ha         1 1OD       0.136500
     48 H3           3.8960     0.0140     4.6140 ha         1 1OD       0.140500
     49 H4           1.5340    -0.7600     5.3710 ho         1 1OD       0.428000
     50 H5          -0.4120     0.7360     2.9990 ho         1 1OD       0.432500
     51 H6           2.8910     0.0090    -1.1680 hn         1 1OD       0.312500
     52 H7           0.5350    -0.8970    -2.4890 h1         1 1OD       0.054200
     53 H8           0.5350     0.8720    -2.4980 h1         1 1OD       0.054200
     54 H9           2.7740    -0.9030    -3.5370 hc         1 1OD       0.056200
     55 H10          2.7730     0.8660    -3.5460 hc         1 1OD       0.056200
     56 H11          0.7700    -0.9140    -4.9800 h1         1 1OD       0.060450
     57 H12          0.7570     0.8550    -4.9820 h1         1 1OD       0.060450
     58 H13          4.4590    -0.2130    -7.5600 h1         1 1OD       0.084700
     59 H14          2.4090    -2.0450    -8.8250 h1         1 1OD       0.082700
     60 H15          3.0150    -0.4530   -10.7900 hc         1 1OD       0.052033
     61 H16          3.9550     0.4610    -9.6020 hc         1 1OD       0.052033
     62 H17          2.2060     0.2900    -9.4020 hc         1 1OD       0.052033
     63 H18          7.1960    -4.3200    -5.8030 ho         1 1OD       0.431000
     64 H19          8.2330    -7.1170    -6.8390 ho         1 1OD       0.431000
     65 H20          8.2620    -7.0760    -9.1840 ha         1 1OD       0.136000
     66 H21          7.0350    -6.1360   -11.1030 ha         1 1OD       0.139000
     67 H22          5.5580    -4.1940   -10.8000 ha         1 1OD       0.153000
     68 H23          2.9520     1.0630    -7.7190 h1         1 1OD       0.060450
     69 H24          1.8760     1.9360    -6.6190 h1         1 1OD       0.060450
     70 H25          4.7540     1.1510    -6.0290 hc         1 1OD       0.056200
     71 H26          3.6790     2.0230    -4.9270 hc         1 1OD       0.056200
     72 H27          3.4770     3.8550    -6.5770 h1         1 1OD       0.054200
     73 H28          4.5520     2.9820    -7.6770 h1         1 1OD       0.054200
     74 H29          5.8710     3.2640    -5.1680 hn         1 1OD       0.312500
     75 H30          7.8150     7.5210    -7.8230 ho         1 1OD       0.432500
     76 H31          9.3190     9.0360    -5.1580 ho         1 1OD       0.428000
     77 H32         10.2180     6.9880    -3.8740 ha         1 1OD       0.140500
     78 H33          9.2690     4.8450    -3.1170 ha         1 1OD       0.136500
     79 H34          7.3230     3.8740    -4.2650 ha         1 1OD       0.130000
@<TRIPOS>BOND
     1     5     6 ar
     2     5     4 ar
     3     6     7 ar
     4     4     3 ar
     5     7     8 1
     6     7     9 ar
     7     3     9 ar
     8     3     2 1
     9     9    10 1
    10    28    27 1
    11    29    27 ar
    12    29    30 ar
    13     1     2 2
    14    27    25 ar
    15     2    11 1
    16    30    31 ar
    17    11    12 1
    18    42    41 1
    19    25    26 1
    20    25    24 ar
    21    31    24 ar
    22    24    23 1
    23    12    13 1
    24    41    43 ar
    25    41    39 ar
    26    40    39 1
    27    43    44 ar
    28    39    38 ar
    29    23    22 2
    30    23    21 1
    31    13    14 1
    32    44    45 ar
    33    14    15 1
    34    38    45 ar
    35    38    36 1
    36    22    18 1
    37    21    19 1
    38    35    36 1
    39    35    34 1
    40    36    37 2
    41    15    16 1
    42    15    32 1
    43    18    19 1
    44    18    16 1
    45    19    20 1
    46    34    33 1
    47    16    17 2
    48    32    33 1
    49     4    46 1
    50     5    47 1
    51     6    48 1
    52     8    49 1
    53    10    50 1
    54    11    51 1
    55    12    52 1
    56    12    53 1
    57    13    54 1
    58    13    55 1
    59    14    56 1
    60    14    57 1
    61    18    58 1
    62    19    59 1
    63    20    60 1
    64    20    61 1
    65    20    62 1
    66    26    63 1
    67    28    64 1
    68    29    65 1
    69    30    66 1
    70    31    67 1
    71    32    68 1
    72    32    69 1
    73    33    70 1
    74    33    71 1
    75    34    72 1
    76    34    73 1
    77    35    74 1
    78    40    75 1
    79    42    76 1
    80    43    77 1
    81    44    78 1
    82    45    79 1
@<TRIPOS>SUBSTRUCTURE
     1 1OD         1 TEMP              0 ****  ****    0 ROOT
