@<TRIPOS>MOLECULE
1OG
   47    47     1     0     0
SMALL
bcc


@<TRIPOS>ATOM
      1 CAB          0.0000     0.0000     0.0000 c3         1 1OG      -0.029100
      2 CBA          1.5290     0.0000     0.0000 c3         1 1OG       0.180800
      3 CAC          2.0400     0.0000     1.4420 c3         1 1OG      -0.029100
      4 CAD          2.0400    -1.2480    -0.7220 c3         1 1OG      -0.029100
      5 OAS          2.0130     1.1870    -0.6840 os         1 1OG      -0.411900
      6 CAW          1.6530     2.3740    -0.1730 c          1 1OG       0.734100
      7 OAH          0.9550     2.4210     0.8130 o          1 1OG      -0.557000
      8 CAN          2.1160     3.6490    -0.8300 c3         1 1OG      -0.083900
      9 CAV          1.1640     4.0080    -1.9600 c3         1 1OG      -0.210000
     10 CAL          1.6810     5.2100    -2.7070 c          1 1OG       0.559900
     11 OAE          0.9870     5.7510    -3.5340 o          1 1OG      -0.441100
     12 CAM         -0.1660     4.3300    -1.3130 c2         1 1OG       0.335200
     13 NAQ         -0.5040     5.5480    -1.0770 ne         1 1OG      -0.304300
     14 CAY          0.2170     6.6190    -1.4510 ce         1 1OG       0.085400
     15 CAU         -0.5870     7.6160    -2.1860 c          1 1OG       0.973800
     16 OAK         -0.6810     7.5490    -3.5280 o          1 1OG      -0.852300
     17 OAG         -1.1640     8.4970    -1.5790 o          1 1OG      -0.852300
     18 CAX          1.4410     6.9740    -1.3170 c2         1 1OG      -0.253400
     19 CAP          2.6370     6.4100    -0.6100 c3         1 1OG       0.080600
     20 SAZ          2.1600     4.9780     0.4050 s6         1 1OG       0.790000
     21 OAI          3.2070     4.7070     1.3270 o          1 1OG      -0.566800
     22 OAJ          0.8420     5.1870     0.8930 o          1 1OG      -0.566800
     23 CAO          1.7520     8.2600    -2.0420 c3         1 1OG       0.217600
     24 OAR          2.2690     9.2340    -1.0970 os         1 1OG      -0.415900
     25 CAT          2.6910    10.4050    -1.5990 c          1 1OG       0.688100
     26 CAA          3.2400    11.4650    -0.6800 c3         1 1OG      -0.043100
     27 OAF          2.6320    10.6090    -2.7880 o          1 1OG      -0.592000
     28 H1          -0.3610    -1.0060     0.1780 hc         1 1OG       0.018700
     29 H2          -0.3610     0.6570     0.7820 hc         1 1OG       0.018700
     30 H3          -0.3610     0.3490    -0.9600 hc         1 1OG       0.018700
     31 H4           2.0810    -1.0180     1.8110 hc         1 1OG       0.018700
     32 H5           3.0310     0.4360     1.4740 hc         1 1OG       0.018700
     33 H6           1.3690     0.5820     2.0630 hc         1 1OG       0.018700
     34 H7           1.6880    -2.1340    -0.2070 hc         1 1OG       0.018700
     35 H8           1.6700    -1.2530    -1.7410 hc         1 1OG       0.018700
     36 H9           3.1230    -1.2430    -0.7320 hc         1 1OG       0.018700
     37 H10          3.1110     3.5060    -1.2340 h1         1 1OG       0.075700
     38 H11          1.0540     3.1660    -2.6320 hc         1 1OG       0.056700
     39 H12          2.7040     5.5360    -2.5640 h4         1 1OG      -0.028800
     40 H13         -0.8460     3.5270    -1.0560 h4         1 1OG      -0.008200
     41 H16          3.3700     6.0970    -1.3430 h1         1 1OG       0.070700
     42 H17          3.0650     7.1720     0.0300 h1         1 1OG       0.070700
     43 H18          2.4940     8.0720    -2.8090 h1         1 1OG       0.065700
     44 H19          2.5570    11.6140     0.1470 hc         1 1OG       0.018367
     45 H20          4.2040    11.1490    -0.3000 hc         1 1OG       0.018367
     46 H21          3.3540    12.3930    -1.2260 hc         1 1OG       0.018367
     47 H14          0.8490     8.6440    -2.5000 h1         1 1OG       0.065700
@<TRIPOS>BOND
     1     1     2 1   
     2     1    28 1   
     3     1    29 1   
     4     1    30 1   
     5     2     3 1   
     6     2     4 1   
     7     2     5 1   
     8     3    31 1   
     9     3    32 1   
    10     3    33 1   
    11     4    34 1   
    12     4    35 1   
    13     4    36 1   
    14     5     6 1   
    15     6     7 2   
    16     6     8 1   
    17     8     9 1   
    18     8    20 1   
    19     8    37 1   
    20     9    10 1   
    21     9    12 1   
    22     9    38 1   
    23    10    11 2   
    24    10    39 1   
    25    12    13 2   
    26    12    40 1   
    27    13    14 1   
    28    14    15 1   
    29    14    18 2   
    30    15    16 1   
    31    15    17 1   
    32    18    19 1   
    33    18    23 1   
    34    19    20 1   
    35    19    41 1   
    36    19    42 1   
    37    20    21 2   
    38    20    22 2   
    39    23    24 1   
    40    23    43 1   
    41    23    47 1   
    42    24    25 1   
    43    25    26 1   
    44    25    27 2   
    45    26    44 1   
    46    26    45 1   
    47    26    46 1   
@<TRIPOS>SUBSTRUCTURE
     1 1OG         1 TEMP              0 ****  ****    0 ROOT
