@<TRIPOS>MOLECULE
1OG
   47    47     1     0     0
SMALL
bcc


@<TRIPOS>ATOM
      1 CAB          0.4780    -0.5100     1.1590 c3         1 1OG      -0.125100
      2 CBA          1.5790    -0.0650     0.2010 c3         1 1OG       0.191800
      3 CAC          2.7560     0.4810     0.9890 c3         1 1OG      -0.125100
      4 CAD          1.0520     0.9420    -0.8080 c3         1 1OG      -0.125100
      5 OAS          1.9280    -1.3030    -0.4920 os         1 1OG      -0.409900
      6 CAW          2.9660    -1.3270    -1.3530 c          1 1OG       0.686100
      7 OAH          3.6270    -0.3120    -1.5970 o          1 1OG      -0.559000
      8 CAN          3.1940    -2.6510    -2.0460 c3         1 1OG      -0.271900
      9 CAV          4.6710    -3.0090    -1.9230 c3         1 1OG      -0.250000
     10 CAL          5.1150    -3.8180    -3.1300 c          1 1OG       0.555900
     11 OAE          6.3020    -3.9070    -3.4450 o          1 1OG      -0.531100
     12 CAM          5.2260    -3.6830    -0.6960 c2         1 1OG       0.424200
     13 NAQ          4.8390    -3.9350     0.4880 ne         1 1OG      -0.533300
     14 CAY          3.6190    -3.7730     1.1260 ce         1 1OG       0.089400
     15 CAU          3.6590    -3.0930     2.5340 c          1 1OG       0.931800
     16 OAK          4.4880    -3.5180     3.3670 o          1 1OG      -0.793300
     17 OAG          2.8070    -2.1830     2.7240 o          1 1OG      -0.793300
     18 CAX          2.4420    -4.2870     0.6700 c2         1 1OG      -0.210400
     19 CAP          2.3250    -4.9500    -0.6430 c3         1 1OG      -0.244400
     20 SAZ          1.9780    -3.9320    -1.9500 s6         1 1OG       1.254000
     21 OAI          2.1990    -4.6730    -3.1430 o          1 1OG      -0.659300
     22 OAJ          0.7000    -3.3560    -1.8610 o          1 1OG      -0.659300
     23 CAO          1.2280    -4.2010     1.5390 c3         1 1OG       0.187600
     24 OAR          0.3170    -5.2760     1.2640 os         1 1OG      -0.433900
     25 CAT         -0.9490    -5.0080     0.8210 c          1 1OG       0.635100
     26 CAA         -1.4430    -3.6250     0.5810 c3         1 1OG      -0.204100
     27 OAF         -1.6010    -6.0460     0.6510 o          1 1OG      -0.540000
     28 H1           0.0030     0.3920     1.6090 hc         1 1OG       0.056256
     29 H2          -0.2940    -1.1030     0.6130 hc         1 1OG       0.056256
     30 H3           0.9280    -1.1420     1.9690 hc         1 1OG       0.056256
     31 H4           2.3930     1.2870     1.6710 hc         1 1OG       0.056256
     32 H5           3.2030    -0.3410     1.6100 hc         1 1OG       0.056256
     33 H6           3.5340     0.9030     0.3110 hc         1 1OG       0.056256
     34 H7           0.6800     1.8450    -0.2680 hc         1 1OG       0.056256
     35 H8           1.8640     1.2490    -1.5100 hc         1 1OG       0.056256
     36 H9           0.2140     0.4970    -1.3940 hc         1 1OG       0.056256
     37 H10          3.0780    -2.3410    -3.1420 h1         1 1OG       0.125700
     38 H11          5.2420    -2.0220    -1.9710 hc         1 1OG       0.120700
     39 H12          4.3100    -4.3220    -3.7130 h4         1 1OG       0.043200
     40 H13          6.2910    -3.9720    -0.8870 h4         1 1OG       0.021800
     41 H16          3.2450    -5.5680    -0.8460 h1         1 1OG       0.136700
     42 H17          1.4960    -5.7210    -0.5690 h1         1 1OG       0.136700
     43 H18          0.7590    -3.1890     1.4110 h1         1 1OG       0.086700
     44 H19         -1.3600    -3.0110     1.5100 hc         1 1OG       0.082700
     45 H20         -2.5140    -3.6680     0.2660 hc         1 1OG       0.082700
     46 H21         -0.8430    -3.1440    -0.2370 hc         1 1OG       0.082700
     47 H14          1.5100    -4.3390     2.6220 h1         1 1OG       0.086700
@<TRIPOS>BOND
     1     1     2 1   
     2     1    28 1   
     3     1    29 1   
     4     1    30 1   
     5     2     3 1   
     6     2     4 1   
     7     2     5 1   
     8     3    31 1   
     9     3    32 1   
    10     3    33 1   
    11     4    34 1   
    12     4    35 1   
    13     4    36 1   
    14     5     6 1   
    15     6     7 2   
    16     6     8 1   
    17     8     9 1   
    18     8    20 1   
    19     8    37 1   
    20     9    10 1   
    21     9    12 1   
    22     9    38 1   
    23    10    11 2   
    24    10    39 1   
    25    12    13 2   
    26    12    40 1   
    27    13    14 1   
    28    14    15 1   
    29    14    18 2   
    30    15    16 1   
    31    15    17 1   
    32    18    19 1   
    33    18    23 1   
    34    19    20 1   
    35    19    41 1   
    36    19    42 1   
    37    20    21 2   
    38    20    22 2   
    39    23    24 1   
    40    23    43 1   
    41    23    47 1   
    42    24    25 1   
    43    25    26 1   
    44    25    27 2   
    45    26    44 1   
    46    26    45 1   
    47    26    46 1   
@<TRIPOS>SUBSTRUCTURE
     1 1OG         1 TEMP              0 ****  ****    0 ROOT
