@<TRIPOS>MOLECULE
molecule
   32    33     1     0     0
SMALL
bcc


@<TRIPOS>ATOM
      1 O2           0.0000     0.0000     0.0000 oh         1 1OH      -0.523100
      2 C13          1.3600     0.0000     0.0000 ca         1 1OH       0.100100
      3 C14          2.0530     0.0000     1.2020 ca         1 1OH      -0.151500
      4 C15          3.4350    -0.0000     1.2000 ca         1 1OH      -0.111500
      5 C12          2.0560    -0.0070    -1.1990 ca         1 1OH      -0.151500
      6 C11          3.4370    -0.0070    -1.1960 ca         1 1OH      -0.111500
      7 C4           4.1260    -0.0010     0.0020 ca         1 1OH      -0.080300
      8 C2           5.6330    -0.0010     0.0030 c3         1 1OH       0.027600
      9 C5           6.1420    -1.2680     0.6930 c3         1 1OH      -0.081100
     10 C3           6.1440     0.0350    -1.4380 c3         1 1OH      -0.081100
     11 C1           6.1350     1.2110     0.7450 ca         1 1OH      -0.073300
     12 C6           7.0230     1.0610     1.7940 ca         1 1OH      -0.124000
     13 C7           7.4830     2.1720     2.4750 ca         1 1OH      -0.127500
     14 C8           7.0550     3.4350     2.1070 ca         1 1OH      -0.131000
     15 C9           6.1670     3.5850     1.0580 ca         1 1OH      -0.127500
     16 C10          5.7110     2.4740     0.3740 ca         1 1OH      -0.124000
     17 H2          -0.3140     0.8890    -0.0050 ho         1 1OH       0.418000
     18 H14          1.5120     0.0010     2.1400 ha         1 1OH       0.139500
     19 H15          3.9770     0.0020     2.1370 ha         1 1OH       0.138500
     20 H12          1.5160    -0.0120    -2.1390 ha         1 1OH       0.139500
     21 H11          3.9800    -0.0100    -2.1330 ha         1 1OH       0.138500
     22 H51          7.2200    -1.3240     0.5950 hc         1 1OH       0.040533
     23 H52          5.8770    -1.2400     1.7430 hc         1 1OH       0.040533
     24 H53          5.6920    -2.1380     0.2300 hc         1 1OH       0.040533
     25 H31          7.2230     0.1260    -1.4360 hc         1 1OH       0.040533
     26 H32          5.8590    -0.8790    -1.9450 hc         1 1OH       0.040533
     27 H33          5.7110     0.8840    -1.9540 hc         1 1OH       0.040533
     28 H6           7.3580     0.0720     2.0820 ha         1 1OH       0.134500
     29 H7           8.1780     2.0540     3.2970 ha         1 1OH       0.129000
     30 H8           7.4130     4.3060     2.6420 ha         1 1OH       0.128000
     31 H9           5.8330     4.5740     0.7680 ha         1 1OH       0.129000
     32 H10          5.0160     2.5910    -0.4480 ha         1 1OH       0.134500
@<TRIPOS>BOND
     1    14    15 ar
     2    14    13 ar
     3    15    16 ar
     4    13    12 ar
     5    16    11 ar
     6    12    11 ar
     7    11     8 1
     8     6     5 ar
     9     6     7 ar
    10     8     7 1
    11     8    10 1
    12     8     9 1
    13     5     2 ar
    14     7     4 ar
    15     2     1 1
    16     2     3 ar
    17     4     3 ar
    18     1    17 1
    19     3    18 1
    20     4    19 1
    21     5    20 1
    22     6    21 1
    23     9    22 1
    24     9    23 1
    25     9    24 1
    26    10    25 1
    27    10    26 1
    28    10    27 1
    29    12    28 1
    30    13    29 1
    31    14    30 1
    32    15    31 1
    33    16    32 1
@<TRIPOS>SUBSTRUCTURE
     1 1OH         1 TEMP              0 ****  ****    0 ROOT
