@<TRIPOS>MOLECULE
1OH
   32    33     1     0     0
SMALL
bcc


@<TRIPOS>ATOM
      1 O2          -0.0160     0.2230     0.2190 oh         1 1OH      -0.498100
      2 C13          1.3590     0.1670     0.1830 ca         1 1OH       0.121100
      3 C14          2.1470     0.0990     1.3380 ca         1 1OH      -0.185500
      4 C15          3.5350     0.0440     1.2200 ca         1 1OH      -0.089000
      5 C12          1.9560     0.1810    -1.0890 ca         1 1OH      -0.185500
      6 C11          3.3400     0.1250    -1.1830 ca         1 1OH      -0.089000
      7 C4           4.1480     0.0560    -0.0360 ca         1 1OH      -0.106300
      8 C2           5.6450    -0.0320    -0.2100 c3         1 1OH       0.044600
      9 C5           5.9620    -1.3980    -0.8170 c3         1 1OH      -0.086100
     10 C3           6.3910     0.0680     1.1210 c3         1 1OH      -0.086100
     11 C1           6.1160     1.1070    -1.0840 ca         1 1OH      -0.072300
     12 C6           6.8980     0.9040    -2.2250 ca         1 1OH      -0.125000
     13 C7           7.3320     1.9910    -2.9870 ca         1 1OH      -0.131000
     14 C8           6.9920     3.2900    -2.6190 ca         1 1OH      -0.132000
     15 C9           6.2110     3.5020    -1.4820 ca         1 1OH      -0.131000
     16 C10          5.7780     2.4200    -0.7210 ca         1 1OH      -0.125000
     17 H2          -0.2890     0.2070     1.1480 ho         1 1OH       0.418000
     18 H14          1.6770     0.0890     2.3310 ha         1 1OH       0.141000
     19 H15          4.1370    -0.0110     2.1400 ha         1 1OH       0.138000
     20 H12          1.3230     0.2370    -1.9860 ha         1 1OH       0.141000
     21 H11          3.8170     0.1420    -2.1770 ha         1 1OH       0.138000
     22 H51          5.5090    -1.4920    -1.8330 hc         1 1OH       0.039867
     23 H52          5.5430    -2.2040    -0.1660 hc         1 1OH       0.039867
     24 H53          7.0660    -1.5450    -0.8920 hc         1 1OH       0.039867
     25 H31          6.1250     1.0130     1.6510 hc         1 1OH       0.039867
     26 H32          7.4920     0.0640     0.9340 hc         1 1OH       0.039867
     27 H33          6.1410    -0.8020     1.7740 hc         1 1OH       0.039867
     28 H6           7.1840    -0.1100    -2.5400 ha         1 1OH       0.134500
     29 H7           7.9460     1.8160    -3.8830 ha         1 1OH       0.130500
     30 H8           7.3340     4.1440    -3.2210 ha         1 1OH       0.130000
     31 H9           5.9370     4.5250    -1.1850 ha         1 1OH       0.130500
     32 H10          5.1570     2.5900     0.1720 ha         1 1OH       0.134500
@<TRIPOS>BOND
     1     1     2 1   
     2     1    17 1   
     3     2     3 ar  
     4     2     5 ar  
     5     3     4 ar  
     6     3    18 1   
     7     4     7 ar  
     8     4    19 1   
     9     5     6 ar  
    10     5    20 1   
    11     6     7 ar  
    12     6    21 1   
    13     7     8 1   
    14     8     9 1   
    15     8    10 1   
    16     8    11 1   
    17     9    22 1   
    18     9    23 1   
    19     9    24 1   
    20    10    25 1   
    21    10    26 1   
    22    10    27 1   
    23    11    12 ar  
    24    11    16 ar  
    25    12    13 ar  
    26    12    28 1   
    27    13    14 ar  
    28    13    29 1   
    29    14    15 ar  
    30    14    30 1   
    31    15    16 ar  
    32    15    31 1   
    33    16    32 1   
@<TRIPOS>SUBSTRUCTURE
     1 1OH         1 TEMP              0 ****  ****    0 ROOT
