@<TRIPOS>MOLECULE
1OH
   32    33     1     0     0
SMALL
bcc


@<TRIPOS>ATOM
      1 O2         -0.0300   -0.1260    0.2340 oh        1 1OH     -0.498100
      2 C13         1.3410   -0.0980    0.1100 ca        1 1OH      0.121100
      3 C14         2.0770    0.0160    1.3020 ca        1 1OH     -0.185500
      4 C15         3.4630    0.0480    1.2350 ca        1 1OH     -0.089000
      5 C12         1.9930   -0.1770   -1.1260 ca        1 1OH     -0.185500
      6 C11         3.3870   -0.1430   -1.1690 ca        1 1OH     -0.089000
      7 C4          4.1370   -0.0300    0.0040 ca        1 1OH     -0.106300
      8 C2          5.6470   -0.0200    0.0040 c3        1 1OH      0.044600
      9 C5          6.1200   -1.3330    0.6280 c3        1 1OH     -0.086100
     10 C3          6.2270    0.0570   -1.4080 c3        1 1OH     -0.086100
     11 C1          6.1400    1.1870    0.7670 ca        1 1OH     -0.072300
     12 C6          7.0590    1.0890    1.8170 ca        1 1OH     -0.125000
     13 C7          7.5050    2.2360    2.4750 ca        1 1OH     -0.131000
     14 C8          7.0410    3.4930    2.0940 ca        1 1OH     -0.132000
     15 C9          6.1240    3.6010    1.0480 ca        1 1OH     -0.131000
     16 C10         5.6780    2.4580    0.3900 ca        1 1OH     -0.125000
     17 H2         -0.4070   -0.2050   -0.6540 ho        1 1OH      0.418000
     18 H14         1.5490    0.0790    2.2630 ha        1 1OH      0.141000
     19 H15         4.0490    0.1430    2.1630 ha        1 1OH      0.138000
     20 H12         1.4130   -0.2650   -2.0550 ha        1 1OH      0.141000
     21 H11         3.8810   -0.2080   -2.1500 ha        1 1OH      0.138000
     22 H51         5.7930   -1.4030    1.6930 hc        1 1OH      0.039867
     23 H52         7.2320   -1.4090    0.5790 hc        1 1OH      0.039867
     24 H53         5.6820   -2.1930    0.0660 hc        1 1OH      0.039867
     25 H31         5.9610   -0.8580   -1.9890 hc        1 1OH      0.039867
     26 H32         7.3400    0.1280   -1.3520 hc        1 1OH      0.039867
     27 H33         5.8410    0.9570   -1.9430 hc        1 1OH      0.039867
     28 H6          7.4440    0.1110    2.1390 ha        1 1OH      0.134500
     29 H7          8.2280    2.1430    3.3000 ha        1 1OH      0.130500
     30 H8          7.3940    4.3950    2.6140 ha        1 1OH      0.130000
     31 H9          5.7510    4.5890    0.7420 ha        1 1OH      0.130500
     32 H10         4.9490    2.5450   -0.4300 ha        1 1OH      0.134500
@<TRIPOS>BOND
     1    1    2 1   
     2    1   17 1   
     3    2    3 ar  
     4    2    5 ar  
     5    3    4 ar  
     6    3   18 1   
     7    4    7 ar  
     8    4   19 1   
     9    5    6 ar  
    10    5   20 1   
    11    6    7 ar  
    12    6   21 1   
    13    7    8 1   
    14    8    9 1   
    15    8   10 1   
    16    8   11 1   
    17    9   22 1   
    18    9   23 1   
    19    9   24 1   
    20   10   25 1   
    21   10   26 1   
    22   10   27 1   
    23   11   12 ar  
    24   11   16 ar  
    25   12   13 ar  
    26   12   28 1   
    27   13   14 ar  
    28   13   29 1   
    29   14   15 ar  
    30   14   30 1   
    31   15   16 ar  
    32   15   31 1   
    33   16   32 1   
@<TRIPOS>SUBSTRUCTURE
     1 1OH         1 TEMP              0 ****  ****    0 ROOT
