@<TRIPOS>MOLECULE
molecule
   73    76     1     0     0
SMALL
bcc


@<TRIPOS>ATOM
      1 C13          0.0000     0.0000     0.0000 c          1 1OJ       0.541100
      2 C18          1.2900     3.6640    -0.9650 ca         1 1OJ       0.152100
      3 C17          1.2420     2.4920    -0.2310 ca         1 1OJ      -0.176000
      4 C16          1.6820     1.2920    -0.7800 ca         1 1OJ      -0.091300
      5 C19          1.7710     3.6360    -2.3000 ca         1 1OJ      -0.013900
      6 C20          2.2510     2.4390    -2.8300 ca         1 1OJ      -0.119000
      7 C21          2.1990     1.2830    -2.0680 ca         1 1OJ      -0.146000
      8 C24          0.2120     4.8420     0.8170 c3         1 1OJ       0.127400
      9 C12          1.4790     0.0000     0.0000 c3         1 1OJ       0.190800
     10 C34         -3.7670     2.8170    -0.0890 ca         1 1OJ      -0.261000
     11 C33         -3.4800     1.4670    -0.2510 ca         1 1OJ      -0.002000
     12 C1           7.9930    -0.6070     2.8420 ca         1 1OJ       0.542200
     13 N2           8.4750    -0.8980     1.6280 nb         1 1OJ      -0.755000
     14 C3           7.6080    -0.9940     0.6340 ca         1 1OJ       0.573200
     15 C4           6.2180    -0.7970     0.7810 ca         1 1OJ      -0.347300
     16 C5           5.7370    -0.5170     2.0810 ca         1 1OJ      -0.024000
     17 C6           6.6730    -0.4280     3.1210 ca         1 1OJ      -0.293300
     18 C7           5.3110    -0.8220    -0.2890 ca         1 1OJ       0.054000
     19 C8           3.9920    -0.5820    -0.0890 ca         1 1OJ      -0.206000
     20 C9           3.4960    -0.3030     1.1850 ca         1 1OJ       0.053600
     21 C10          4.3520    -0.2860     2.2650 ca         1 1OJ      -0.180000
     22 N11          2.1440     0.0000     1.2940 nu         1 1OJ      -0.712600
     23 O14         -0.6600     0.5100     0.8970 o          1 1OJ      -0.499100
     24 N15         -0.5320    -0.5610    -1.1290 ny         1 1OJ      -0.545700
     25 O22          1.5780     4.7690    -3.0650 os         1 1OJ      -0.576900
     26 C25          0.0630     6.1170     1.2550 c3         1 1OJ      -0.109100
     27 C26          2.6840     5.6120    -3.5370 c3         1 1OJ       0.216100
     28 C28          3.8980     4.9430    -4.1270 c3         1 1OJ      -0.143600
     29 S29         -2.1370    -0.6130    -1.4260 sy         1 1OJ       1.569200
     30 O30         -2.3530    -1.0370    -2.7760 o          1 1OJ      -0.509800
     31 O31         -2.6930    -1.3680    -0.3470 o          1 1OJ      -0.509800
     32 C32         -2.6380     1.0750    -1.2810 ca         1 1OJ      -0.638500
     33 C35         -3.2340     3.7710    -0.9450 ca         1 1OJ       0.200000
     34 C36         -2.4100     3.3620    -1.9850 ca         1 1OJ      -0.525500
     35 C37         -2.1050     2.0170    -2.1520 ca         1 1OJ       0.286000
     36 S38         -1.8060     4.5600    -3.1430 sy         1 1OJ       1.570200
     37 O39         -1.0180     3.8670    -4.1200 o          1 1OJ      -0.551300
     38 O40         -1.1950     5.6220    -2.3960 o          1 1OJ      -0.551300
     39 N41         -3.0620     5.1910    -3.9130 nz         1 1OJ      -0.776500
     40 O23          0.9830     4.8760    -0.3940 os         1 1OJ      -0.341900
     41 C27          2.0460     6.5820    -4.4810 c3         1 1OJ      -0.143600
     42 H1           0.9270     3.4810     0.0820 ha         1 1OJ       0.183000
     43 H2           2.2910     3.3430    -3.4250 ha         1 1OJ       0.187000
     44 H3           1.8450     2.2230    -1.6650 ha         1 1OJ       0.178000
     45 H4          -0.7650     4.4320     0.5880 h1         1 1OJ       0.057700
     46 H5           0.7350     4.2490     1.5580 h1         1 1OJ       0.057700
     47 H6           1.8410    -0.8360    -0.5870 h1         1 1OJ       0.102700
     48 H7          -4.4340     3.1280     0.7070 ha         1 1OJ       0.252000
     49 H8           2.0880     5.5220    -4.2610 hc         1 1OJ       0.080867
     50 H9           0.9980     6.8250    -4.3510 hc         1 1OJ       0.080867
     51 H10          2.4430     6.7010    -5.4820 hc         1 1OJ       0.080867
     52 H11         -3.1300     2.1870    -0.9810 ha         1 1OJ       0.254000
     53 H12          8.7010    -0.5330     3.6580 h4         1 1OJ       0.038100
     54 H13          7.2400    -0.7990     1.6340 h4         1 1OJ       0.108100
     55 H14          6.3450    -0.1980     4.1280 ha         1 1OJ       0.153000
     56 H15          4.9490    -0.6370     0.7140 ha         1 1OJ       0.133000
     57 H16          4.6500    -0.8570     0.7260 ha         1 1OJ       0.154000
     58 H17          4.7880    -0.1860     1.2780 ha         1 1OJ       0.145000
     59 H18          1.8420     0.6140     2.0250 hn         1 1OJ       0.412800
     60 H19         -0.1340    -0.0800    -1.9110 hn         1 1OJ       0.438300
     61 H20          0.9730     6.6900     1.1260 hc         1 1OJ       0.068033
     62 H21         -0.6890     6.6430     0.6800 hc         1 1OJ       0.068033
     63 H22         -0.2200     6.1220     2.3010 hc         1 1OJ       0.068033
     64 H23          3.0330     6.1800    -2.6830 h1         1 1OJ       0.102700
     65 H24          3.6340     3.9710    -4.5260 hc         1 1OJ       0.080867
     66 H25          4.6270     4.8340    -3.3330 hc         1 1OJ       0.080867
     67 H26          4.2780     5.5400    -4.9470 hc         1 1OJ       0.080867
     68 H27         -3.4670     4.8210    -0.8130 ha         1 1OJ       0.203000
     69 H28         -1.3510     1.7220    -2.8720 ha         1 1OJ       0.198000
     70 H29         -3.2180     6.1280    -3.5970 hn         1 1OJ       0.395467
     71 H30         -2.8860     5.1860    -4.8980 hn         1 1OJ       0.395467
     72 H413        -3.8840     4.6600    -3.7040 hn         1 1OJ       0.395467
     73 H152        -0.2540    -1.5220    -1.1160 hn         1 1OJ       0.438300
@<TRIPOS>BOND
     1    10    11 ar  
     2    10    33 ar  
     3    11    32 ar  
     4    33    34 ar  
     5    26     8 1   
     6    31    29 2   
     7    32    35 ar  
     8    32    29 1   
     9    34    35 ar  
    10    34    36 1   
    11    39    36 1   
    12     8    40 1   
    13    23     1 2   
    14    38    36 2   
    15    29    30 2   
    16    29    24 1   
    17    36    37 2   
    18    40     2 1   
    19     1    24 1   
    20     1     9 1   
    21     3     2 ar  
    22     3     4 ar  
    23     2     5 ar  
    24    22     9 1   
    25    22    20 1   
    26     9     4 1   
    27     4     7 ar  
    28    25     5 1   
    29    25    27 1   
    30     5     6 ar  
    31    20    21 ar  
    32    20    19 ar  
    33    21    16 ar  
    34     7     6 ar  
    35    28    27 1   
    36    27    41 1   
    37    19    18 ar  
    38    16    17 ar  
    39    16    15 ar  
    40    17    12 ar  
    41    18    15 ar  
    42    15    14 ar  
    43    12    13 ar  
    44    14    13 ar  
    45     3    42 1   
    46     6    43 1   
    47     7    44 1   
    48     8    45 1   
    49     8    46 1   
    50     9    47 1   
    51    10    48 1   
    52    41    49 1   
    53    41    50 1   
    54    41    51 1   
    55    11    52 1   
    56    12    53 1   
    57    14    54 1   
    58    17    55 1   
    59    18    56 1   
    60    19    57 1   
    61    21    58 1   
    62    22    59 1   
    63    24    60 1   
    64    26    61 1   
    65    26    62 1   
    66    26    63 1   
    67    27    64 1   
    68    28    65 1   
    69    28    66 1   
    70    28    67 1   
    71    33    68 1   
    72    35    69 1   
    73    39    70 1   
    74    39    71 1   
    75    72    39 1   
    76    73    24 1   
@<TRIPOS>SUBSTRUCTURE
     1 1OJ         1 TEMP              0 ****  ****    0 ROOT
