@<TRIPOS>MOLECULE
1OJ
   72    76     1     0     0
SMALL
bcc


@<TRIPOS>ATOM
      1 C13          0.0000     0.0000     0.0000 c2         1 1OJ       0.302000
      2 C18          3.0030     2.2560    -2.6360 ca         1 1OJ       0.088000
      3 C17          2.5400     1.1250    -1.9820 ca         1 1OJ      -0.159000
      4 C16          2.0090     1.2310    -0.7100 ca         1 1OJ      -0.138000
      5 C19          2.9310     3.4970    -2.0100 ca         1 1OJ       0.092000
      6 C20          2.3970     3.5960    -0.7350 ca         1 1OJ      -0.191000
      7 C21          1.9380     2.4640    -0.0880 ca         1 1OJ      -0.089000
      8 C24          3.5730     0.8480    -4.4660 c3         1 1OJ       0.047000
      9 C12          1.5070     0.0000     0.0000 c3         1 1OJ      -0.019000
     10 C34         -3.4650     3.3560    -1.9700 ca         1 1OJ      -0.138000
     11 C33         -3.0550     2.0410    -2.0850 ca         1 1OJ       0.107000
     12 C1           6.8780    -1.2400     4.7160 c2         1 1OJ      -0.024000
     13 N2           7.5880    -1.7600     3.7250 n2         1 1OJ      -0.075000
     14 C3           7.1330    -1.8550     2.4970 c2         1 1OJ       0.011000
     15 C4           5.8430    -1.3950     2.1910 c2         1 1OJ      -0.115000
     16 C5           5.0590    -0.8320     3.2320 c2         1 1OJ       0.028000
     17 C6           5.6140    -0.7690     4.5250 c2         1 1OJ      -0.173000
     18 C7           5.3150    -1.4750     0.8920 c2         1 1OJ      -0.221000
     19 C8           4.0610    -1.0150     0.6440 c3         1 1OJ      -0.421000
     20 C9           3.2800    -0.4590     1.6660 c2         1 1OJ       0.300000
     21 C10          3.7670    -0.3700     2.9540 c2         1 1OJ      -0.335000
     22 N11          1.9950     0.0000     1.3810 n7         1 1OJ       0.029000
     23 O14         -0.6060     0.3640     0.9850 o          1 1OJ      -0.385000
     24 N15         -0.6740    -0.3980    -1.0970 ns         1 1OJ      -0.467000
     25 O22          3.3840     4.6090    -2.6470 os         1 1OJ      -0.166000
     26 C25          4.1940     0.9290    -5.8610 c3         1 1OJ      -0.114000
     27 C26          3.1690     5.8630    -1.9960 c3         1 1OJ       0.059000
     28 C28          3.1400     6.9810    -3.0400 c3         1 1OJ      -0.174000
     29 S29         -2.3300    -0.3980    -1.0980 s6         1 1OJ       2.388000
     30 O30         -2.7310    -0.8310    -2.3900 o          1 1OJ      -0.833000
     31 O31         -2.7320    -1.0500     0.1000 o          1 1OJ      -0.833000
     32 C32         -2.8520     1.2780    -0.9500 ca         1 1OJ      -0.631000
     33 C35         -3.6690     3.9090    -0.7190 ca         1 1OJ       0.057000
     34 C36         -3.4650     3.1460     0.4150 ca         1 1OJ      -0.711000
     35 C37         -3.0560     1.8310     0.2990 ca         1 1OJ       0.140000
     36 S38         -3.7250     3.8510     2.0090 s6         1 1OJ       2.281000
     37 O39         -2.9430     3.0880     2.9170 o          1 1OJ      -0.769000
     38 O40         -3.5840     5.2570     1.8540 o          1 1OJ      -0.769000
     39 N41         -5.3080     3.5820     2.4130 nz         1 1OJ       0.136000
     40 H1           2.5870     0.1460    -2.4420 ha         1 1OJ       0.127000
     41 H2           2.2990     4.5670    -0.2650 ha         1 1OJ       0.135000
     42 H3           1.5100     2.5440     0.9040 ha         1 1OJ       0.110000
     43 H4           4.1910     0.1990    -3.8580 h1         1 1OJ       0.036000
     44 H5           2.5720     0.4380    -4.5370 h1         1 1OJ       0.036000
     45 H6           1.8820    -0.8760    -0.5160 h1         1 1OJ       0.110000
     46 H7          -3.6150     3.9550    -2.8600 ha         1 1OJ       0.138000
     47 H8           3.8560     5.1480    -0.8420 hc         1 1OJ       0.066667
     48 H9           4.0760     6.8410    -0.2230 hc         1 1OJ       0.066667
     49 H10          5.3340     6.0400    -1.3190 hc         1 1OJ       0.066667
     50 H11         -2.9020     1.6150    -3.0690 ha         1 1OJ       0.139000
     51 H12          7.3250    -1.2570     5.7030 h4         1 1OJ       0.121000
     52 H13          7.7540    -2.2910     1.7230 h4         1 1OJ       0.132000
     53 H14          5.0520    -0.3450     5.3480 ha         1 1OJ       0.131000
     54 H15          4.5800    -1.6180     0.1100 DU         1 1OJ       0.333000
     55 H16          3.3980    -0.7630     1.4640 hc         1 1OJ      -0.032000
     56 H17          4.4320     0.4820     3.0270 ha         1 1OJ       0.182000
     57 H18          1.4130     0.3510     2.1160 hn         1 1OJ       0.125000
     58 H19         -0.1580    -0.7160    -1.8930 hn         1 1OJ       0.162000
     59 H20          5.1240     1.4840    -5.8140 hc         1 1OJ       0.055000
     60 H21          3.4990     1.4120    -6.5370 hc         1 1OJ       0.055000
     61 H22          4.3810    -0.0840    -6.1960 hc         1 1OJ       0.055000
     62 H23          2.2250     5.8360    -1.4640 h1         1 1OJ       0.048000
     63 H24          2.6860     6.6130    -3.9530 hc         1 1OJ       0.066667
     64 H25          4.1490     7.3170    -3.2450 hc         1 1OJ       0.066667
     65 H26          2.5500     7.8060    -2.6600 hc         1 1OJ       0.066667
     66 H27         -3.9770     4.9440    -0.6270 ha         1 1OJ       0.125000
     67 H28         -2.8950     1.2520     1.2010 ha         1 1OJ       0.161000
     68 H29         -5.9610     3.5510     1.6540 hn         1 1OJ       0.113000
     69 H30         -5.3380     2.6930     2.8710 hn         1 1OJ       0.113000
     70 H413        -5.5520     4.3270     3.0340 hn         1 1OJ       0.113000
     71 O23          3.5310     2.1520    -3.8850 os         1 1OJ      -0.167000
     72 C27          4.3010     6.1230    -1.0020 c3         1 1OJ      -0.174000
@<TRIPOS>BOND
     1     1     9 1   
     2     1    23 1   
     3     1    24 1   
     4     2     3 1   
     5     2     5 1   
     6     2    71 1   
     7     3     4 1   
     8     3    40 1   
     9     4     7 1   
    10     4     9 1   
    11     5     6 1   
    12     5    25 1   
    13     6     7 1   
    14     6    41 1   
    15     7    42 1   
    16     8    26 1   
    17     8    43 1   
    18     8    44 1   
    19     8    71 1   
    20     9    22 1   
    21     9    45 1   
    22    10    11 1   
    23    10    33 1   
    24    10    46 1   
    25    11    32 1   
    26    11    50 1   
    27    12    13 1   
    28    12    17 1   
    29    12    51 1   
    30    13    14 1   
    31    14    15 1   
    32    14    52 1   
    33    15    16 1   
    34    15    18 1   
    35    16    17 1   
    36    16    21 1   
    37    17    53 1   
    38    18    19 1   
    39    18    54 1   
    40    19    20 1   
    41    19    54 1   
    42    19    55 1   
    43    20    21 1   
    44    20    22 1   
    45    21    56 1   
    46    22    57 1   
    47    24    29 1   
    48    24    58 1   
    49    25    27 1   
    50    26    59 1   
    51    26    60 1   
    52    26    61 1   
    53    27    28 1   
    54    27    62 1   
    55    27    72 1   
    56    28    63 1   
    57    28    64 1   
    58    28    65 1   
    59    29    30 1   
    60    29    31 1   
    61    29    32 1   
    62    32    35 1   
    63    33    34 1   
    64    33    66 1   
    65    34    35 1   
    66    34    36 1   
    67    35    67 1   
    68    36    37 1   
    69    36    38 1   
    70    36    39 1   
    71    39    68 1   
    72    39    69 1   
    73    39    70 1   
    74    47    72 1   
    75    48    72 1   
    76    49    72 1   
@<TRIPOS>SUBSTRUCTURE
     1 1OJ         1 TEMP              0 ****  ****    0 ROOT
