@<TRIPOS>MOLECULE
molecule
   72    75     1     0     0
SMALL
bcc


@<TRIPOS>ATOM
      1 C13          0.0000     0.0000     0.0000 c          1 1OJ       0.692100
      2 C18          3.0030     2.2560    -2.6360 ca         1 1OJ       0.128100
      3 C17          2.5400     1.1250    -1.9820 ca         1 1OJ      -0.174000
      4 C16          2.0090     1.2310    -0.7100 ca         1 1OJ      -0.136300
      5 C19          2.9310     3.4970    -2.0100 ca         1 1OJ       0.135100
      6 C20          2.3970     3.5960    -0.7350 ca         1 1OJ      -0.202000
      7 C21          1.9380     2.4640    -0.0880 ca         1 1OJ      -0.109000
      8 C24          3.5730     0.8480    -4.4660 c3         1 1OJ       0.130400
      9 C12          1.5070     0.0000     0.0000 c3         1 1OJ       0.234800
     10 C34         -3.4650     3.3560    -1.9700 ca         1 1OJ      -0.151000
     11 C33         -3.0550     2.0410    -2.0850 ca         1 1OJ       0.063000
     12 C1           6.8780    -1.2400     4.7160 ca         1 1OJ       0.452200
     13 N2           7.5880    -1.7600     3.7250 nb         1 1OJ      -0.708000
     14 C3           7.1330    -1.8550     2.4970 ca         1 1OJ       0.495200
     15 C4           5.8430    -1.3950     2.1910 ca         1 1OJ      -0.212300
     16 C5           5.0590    -0.8320     3.2320 ca         1 1OJ       0.025000
     17 C6           5.6140    -0.7690     4.5250 ca         1 1OJ      -0.269300
     18 C7           5.3150    -1.4750     0.8920 ca         1 1OJ      -0.211000
     19 C8           4.0610    -1.0150     0.6440 ca         1 1OJ      -0.424000
     20 C9           3.2800    -0.4590     1.6660 ca         1 1OJ       0.298600
     21 C10          3.7670    -0.3700     2.9540 ca         1 1OJ      -0.345000
     22 N11          1.9950     0.0000     1.3810 nu         1 1OJ      -0.815600
     23 O14         -0.6060     0.3640     0.9850 o          1 1OJ      -0.585100
     24 N15         -0.6740    -0.3980    -1.0970 ns         1 1OJ      -0.646300
     25 O22          3.3840     4.6090    -2.6470 os         1 1OJ      -0.307900
     26 C25          4.1940     0.9290    -5.8610 c3         1 1OJ      -0.090100
     27 C26          3.1690     5.8630    -1.9960 c3         1 1OJ       0.138100
     28 C28          3.1400     6.9810    -3.0400 c3         1 1OJ      -0.130600
     29 S29         -2.3300    -0.3980    -1.0980 sy         1 1OJ       1.413900
     30 O30         -2.7310    -0.8310    -2.3900 o          1 1OJ      -0.593800
     31 O31         -2.7320    -1.0500     0.1000 o          1 1OJ      -0.593800
     32 C32         -2.8520     1.2780    -0.9500 ca         1 1OJ      -0.321500
     33 C35         -3.6690     3.9090    -0.7190 ca         1 1OJ       0.014000
     34 C36         -3.4650     3.1460     0.4150 ca         1 1OJ      -0.368500
     35 C37         -3.0560     1.8310     0.2990 ca         1 1OJ       0.095000
     36 S38         -3.7250     3.8510     2.0090 sy         1 1OJ       1.231200
     37 O39         -2.9430     3.0880     2.9170 o          1 1OJ      -0.513300
     38 O40         -3.5840     5.2570     1.8540 o          1 1OJ      -0.513300
     39 N41         -5.3080     3.5820     2.4130 nz         1 1OJ      -0.811500
     40 H1           2.5870     0.1460    -2.4420 ha         1 1OJ       0.143000
     41 H2           2.2990     4.5670    -0.2650 ha         1 1OJ       0.150000
     42 H3           1.5100     2.5440     0.9040 ha         1 1OJ       0.136000
     43 H4           4.1910     0.1990    -3.8580 h1         1 1OJ       0.031200
     44 H5           2.5720     0.4380    -4.5370 h1         1 1OJ       0.031200
     45 H6           1.8820    -0.8760    -0.5160 h1         1 1OJ       0.098700
     46 H7          -3.6150     3.9550    -2.8600 ha         1 1OJ       0.172000
     47 H8           3.8560     5.1480    -0.8420 hc         1 1OJ       0.057867
     48 H9           4.0760     6.8410    -0.2230 hc         1 1OJ       0.057867
     49 H10          5.3340     6.0400    -1.3190 hc         1 1OJ       0.057867
     50 H11         -2.9020     1.6150    -3.0690 ha         1 1OJ       0.180000
     51 H12          7.3250    -1.2570     5.7030 h4         1 1OJ       0.031100
     52 H13          7.7540    -2.2910     1.7230 h4         1 1OJ       0.044100
     53 H14          5.0520    -0.3450     5.3480 ha         1 1OJ       0.156000
     54 H15          4.5800    -1.6180     0.1100 ha         1 1OJ       0.348000
     55 H16          3.3980    -0.7630     1.4640 ha         1 1OJ       0.188000
     56 H17          4.4320     0.4820     3.0270 ha         1 1OJ       0.199000
     57 H18          1.4130     0.3510     2.1160 hn         1 1OJ       0.471800
     58 H19         -0.1580    -0.7160    -1.8930 hn         1 1OJ       0.363500
     59 H20          5.1240     1.4840    -5.8140 hc         1 1OJ       0.053700
     60 H21          3.4990     1.4120    -6.5370 hc         1 1OJ       0.053700
     61 H22          4.3810    -0.0840    -6.1960 hc         1 1OJ       0.053700
     62 H23          2.2250     5.8360    -1.4640 h1         1 1OJ       0.035700
     63 H24          2.6860     6.6130    -3.9530 hc         1 1OJ       0.057867
     64 H25          4.1490     7.3170    -3.2450 hc         1 1OJ       0.057867
     65 H26          2.5500     7.8060    -2.6600 hc         1 1OJ       0.057867
     66 H27         -3.9770     4.9440    -0.6270 ha         1 1OJ       0.159000
     67 H28         -2.8950     1.2520     1.2010 ha         1 1OJ       0.191000
     68 H29         -5.9610     3.5510     1.6540 hn         1 1OJ       0.495133
     69 H30         -5.3380     2.6930     2.8710 hn         1 1OJ       0.495133
     70 H413        -5.5520     4.3270     3.0340 hn         1 1OJ       0.495133
     71 O23          3.5310     2.1520    -3.8850 os         1 1OJ      -0.304900
     72 C27          4.3010     6.1230    -1.0020 c3         1 1OJ      -0.130600
@<TRIPOS>BOND
     1    10    11 ar  
     2    10    33 ar  
     3    11    32 ar  
     4    33    34 ar  
     5    26     8 1   
     6    31    29 2   
     7    32    35 ar  
     8    32    29 1   
     9    34    35 ar  
    10    34    36 1   
    11    39    36 1   
    12     8    71 1   
    13    23     1 2   
    14    38    36 2   
    15    29    30 2   
    16    29    24 1   
    17    36    37 2   
    18    71     2 1   
    19     1    24 1   
    20     1     9 1   
    21     3     2 ar  
    22     3     4 ar  
    23     2     5 ar  
    24    22     9 1   
    25    22    20 1   
    26     9     4 1   
    27     4     7 ar  
    28    25     5 1   
    29    25    27 1   
    30     5     6 ar  
    31    20    21 ar  
    32    20    19 ar  
    33    21    16 ar  
    34     7     6 ar  
    35    28    27 1   
    36    27    72 1   
    37    19    18 ar  
    38    16    17 ar  
    39    16    15 ar  
    40    17    12 ar  
    41    18    15 ar  
    42    15    14 ar  
    43    12    13 ar  
    44    14    13 ar  
    45     3    40 1   
    46     6    41 1   
    47     7    42 1   
    48     8    43 1   
    49     8    44 1   
    50     9    45 1   
    51    10    46 1   
    52    72    47 1   
    53    72    48 1   
    54    72    49 1   
    55    11    50 1   
    56    12    51 1   
    57    14    52 1   
    58    17    53 1   
    59    18    54 1   
    60    19    55 1   
    61    21    56 1   
    62    22    57 1   
    63    24    58 1   
    64    26    59 1   
    65    26    60 1   
    66    26    61 1   
    67    27    62 1   
    68    28    63 1   
    69    28    64 1   
    70    28    65 1   
    71    33    66 1   
    72    35    67 1   
    73    39    68 1   
    74    39    69 1   
    75    70    39 1   
@<TRIPOS>SUBSTRUCTURE
     1 1OJ         1 TEMP              0 ****  ****    0 ROOT
