@<TRIPOS>MOLECULE
molecule
   69    72     1     0     0
SMALL
bcc


@<TRIPOS>ATOM
      1 C13          0.0000     0.0000     0.0000 ca         1 1OK      -0.212300
      2 C18          1.4250     0.0000     0.0000 ca         1 1OK      -0.051000
      3 C17          2.1340     0.0000     1.1640 ca         1 1OK      -0.186000
      4 C16          1.4830     0.0230     2.3980 ca         1 1OK       0.156600
      5 C15          0.1030     0.0190     2.4510 ca         1 1OK      -0.199000
      6 C21          1.6050     0.2830     4.8640 c3         1 1OK       0.208800
      7 C22          1.3020     1.7490     5.1450 ca         1 1OK      -0.193300
      8 C23          2.5650    -0.1000     5.9380 c          1 1OK       0.551100
      9 C24          2.3240     2.6950     5.0610 ca         1 1OK      -0.129000
     10 C11         -2.0810    -0.0510     1.2890 ca         1 1OK      -0.313300
     11 C12         -0.6680     0.0020     1.2630 ca         1 1OK       0.055000
     12 C34         -0.4070     7.6960     6.8930 c3         1 1OK      -0.114600
     13 C27         -0.2370     3.4710     5.8620 ca         1 1OK      -0.189000
     14 C33         -0.6950     6.3720     6.2730 c3         1 1OK       0.139100
     15 N1           1.9880    -0.3400     7.1470 ny         1 1OK      -0.550700
     16 S2           2.8500    -0.6190     8.5010 sy         1 1OK       1.545200
     17 C3           3.7620     0.8770     8.7290 ca         1 1OK      -0.598500
     18 C4           3.1710     2.0940     8.4030 ca         1 1OK       0.038500
     19 C5           3.9030     3.2630     8.5490 ca         1 1OK      -0.150000
     20 C6           5.1990     3.2230     9.0300 ca         1 1OK       0.030000
     21 C7           5.7700     2.0130     9.3700 ca         1 1OK      -0.150000
     22 C8           5.0600     0.8280     9.2180 ca         1 1OK       0.038500
     23 N9          -2.1710    -0.1140    -1.0960 nb         1 1OK      -0.747000
     24 C10         -2.7610    -0.1190     0.1110 ca         1 1OK       0.459200
     25 C14         -0.8390    -0.0490    -1.1810 ca         1 1OK       0.684200
     26 N19         -0.2890    -0.0530    -2.4140 nv         1 1OK      -0.938500
     27 N20          2.2360     0.0770     3.5700 nu         1 1OK      -0.719600
     28 C25          2.0750     4.0260     5.3580 ca         1 1OK       0.057100
     29 C26          0.7770     4.4230     5.7710 ca         1 1OK       0.146100
     30 C28          0.0310     2.1520     5.5390 ca         1 1OK      -0.064000
     31 O29          0.6220     5.7690     6.0380 os         1 1OK      -0.326900
     32 O30          2.9820     5.0460     5.1820 os         1 1OK      -0.367900
     33 C31          4.3100     4.7340     4.7150 c3         1 1OK       0.128400
     34 C32          5.0460     5.9880     4.5820 c3         1 1OK      -0.104100
     35 C35         -1.4790     6.4930     5.0040 c3         1 1OK      -0.114600
     36 O36          3.7730    -0.2170     5.7470 o          1 1OK      -0.509100
     37 O37          1.8880    -0.7180     9.5600 o          1 1OK      -0.542300
     38 O38          3.7700    -1.6930     8.2750 o          1 1OK      -0.542300
     39 H1           1.9550    -0.0180    -0.9440 ha         1 1OK       0.137000
     40 H2           3.2170     0.0030     1.1310 ha         1 1OK       0.139000
     41 H3          -0.3950     0.0370     3.4130 ha         1 1OK       0.124000
     42 H4           0.7010    -0.3090     4.9400 h1         1 1OK       0.090700
     43 H5           3.3140     2.3910     4.7460 ha         1 1OK       0.154000
     44 H6          -2.6130    -0.0590     2.2320 ha         1 1OK       0.140000
     45 H7          -1.3390     8.1790     7.1620 hc         1 1OK       0.055533
     46 H8           0.1300     8.3170     6.1870 hc         1 1OK       0.055533
     47 H9           0.1960     7.5550     7.7820 hc         1 1OK       0.055533
     48 H10         -1.2330     3.7640     6.1720 ha         1 1OK       0.159000
     49 H11         -1.2470     5.7610     6.9770 h1         1 1OK       0.052700
     50 H12          1.4120     0.4540     7.3430 hn         1 1OK       0.423800
     51 H13          2.1060     2.1420     8.2060 ha         1 1OK       0.179000
     52 H14          3.4510     4.2160     8.3000 ha         1 1OK       0.186500
     53 H15          5.7460     4.1440     9.1920 ha         1 1OK       0.173000
     54 H16          6.7810     1.9870     9.7590 ha         1 1OK       0.186500
     55 H17          5.6450     0.0190     9.6410 ha         1 1OK       0.179000
     56 H18         -3.8420    -0.1730     0.1490 h4         1 1OK       0.027100
     57 H19         -0.0900    -0.9210    -2.8700 hn         1 1OK       0.422300
     58 H20         -0.1190     0.8120    -2.8890 hn         1 1OK       0.422300
     59 H21          3.2300    -0.0260     3.5190 hn         1 1OK       0.412800
     60 H22         -0.7600     1.4160     5.6110 ha         1 1OK       0.147000
     61 H23          4.8090     4.0900     5.4290 h1         1 1OK       0.055700
     62 H24          4.2540     4.2390     3.7530 h1         1 1OK       0.055700
     63 H25          4.5820     6.5990     3.8170 hc         1 1OK       0.049367
     64 H26          6.0710     5.7770     4.3030 hc         1 1OK       0.049367
     65 H27          5.0300     6.5170     5.5270 hc         1 1OK       0.049367
     66 H28         -1.8520     5.5170     4.7150 hc         1 1OK       0.055533
     67 H29         -0.8410     6.8820     4.2210 hc         1 1OK       0.055533
     68 H30         -2.3140     7.1670     5.1580 hc         1 1OK       0.055533
     69 H121         1.4030    -1.1430     7.0220 hn         1 1OK       0.423800
@<TRIPOS>BOND
     1    21    20 ar  
     2    21    22 ar  
     3    20    19 ar  
     4    22    17 ar  
     5    19    18 ar  
     6    17    18 ar  
     7    17    16 1   
     8    34    33 1   
     9    38    16 2   
    10    33    32 1   
    11    36     8 2   
    12    16    37 2   
    13    16    15 1   
    14    32    28 1   
    15     8    15 1   
    16     8     6 1   
    17     9    28 ar  
    18     9     7 ar  
    19    28    29 ar  
    20    27     6 1   
    21    27     4 1   
    22     6     7 1   
    23     7    30 ar  
    24    29    31 1   
    25    29    13 ar  
    26     3     4 ar  
    27     3     2 ar  
    28    31    14 1   
    29     4     5 ar  
    30    30    13 ar  
    31    12    14 1   
    32     2     1 ar  
    33    14    35 1   
    34     5    11 ar  
    35     1    11 ar  
    36     1    25 ar  
    37    11    10 ar  
    38    26    25 1   
    39    25    23 ar  
    40    10    24 ar  
    41    23    24 ar  
    42     2    39 1   
    43     3    40 1   
    44     5    41 1   
    45     6    42 1   
    46     9    43 1   
    47    10    44 1   
    48    12    45 1   
    49    12    46 1   
    50    12    47 1   
    51    13    48 1   
    52    14    49 1   
    53    15    50 1   
    54    18    51 1   
    55    19    52 1   
    56    20    53 1   
    57    21    54 1   
    58    22    55 1   
    59    24    56 1   
    60    26    57 1   
    61    26    58 1   
    62    27    59 1   
    63    30    60 1   
    64    33    61 1   
    65    33    62 1   
    66    34    63 1   
    67    34    64 1   
    68    34    65 1   
    69    35    66 1   
    70    35    67 1   
    71    35    68 1   
    72    69    15 1   
@<TRIPOS>SUBSTRUCTURE
     1 1OK         1 TEMP              0 ****  ****    0 ROOT
