@<TRIPOS>MOLECULE
molecule
   68    71     1     0     0
SMALL
bcc


@<TRIPOS>ATOM
      1 C13          0.0000     0.0000     0.0000 ca         1 1OK      -0.213300
      2 C18          1.4010     0.0000     0.0000 ca         1 1OK      -0.043000
      3 C17          2.0780     0.0000     1.1810 ca         1 1OK      -0.194000
      4 C16          1.3940    -0.0010     2.4020 ca         1 1OK       0.226600
      5 C15          0.0150    -0.0000     2.4360 ca         1 1OK      -0.222000
      6 C21          3.5790    -0.0010     3.5690 c3         1 1OK       0.226800
      7 C22          4.1060    -0.6010     4.8470 ca         1 1OK      -0.114300
      8 C23          4.0790     1.4150     3.4350 c          1 1OK       0.659100
      9 C24          5.2040    -1.4410     4.8130 ca         1 1OK      -0.187000
     10 C11         -2.1100     0.0060     1.2000 ca         1 1OK      -0.268300
     11 C12         -0.7010    -0.0000     1.2330 ca         1 1OK       0.041000
     12 C34          5.2010    -0.6490    10.1390 c3         1 1OK      -0.105600
     13 C27          3.9690    -0.8610     7.2250 ca         1 1OK      -0.188000
     14 C33          4.7870    -1.9960     9.5410 c3         1 1OK       0.134100
     15 N1           5.4040     1.6600     3.3890 ns         1 1OK      -0.653300
     16 S2           5.9530     3.2150     3.2420 sy         1 1OK       1.412900
     17 C3           5.4840     4.0740     4.7080 ca         1 1OK      -0.313500
     18 C4           6.3330     4.0950     5.7990 ca         1 1OK      -0.017500
     19 C5           5.9650     4.7690     6.9490 ca         1 1OK      -0.156500
     20 C6           4.7480     5.4210     7.0070 ca         1 1OK      -0.072000
     21 C7           3.8990     5.4010     5.9170 ca         1 1OK      -0.156500
     22 C8           4.2690     4.7320     4.7650 ca         1 1OK      -0.017500
     23 N9          -2.0650     0.0110    -1.1480 nb         1 1OK      -0.737000
     24 C10         -2.7390     0.0110    -0.0060 ca         1 1OK       0.437200
     25 C14         -0.7460     0.0050    -1.1990 ca         1 1OK       0.715200
     26 N19         -0.0970     0.0050    -2.4210 nv         1 1OK      -1.083500
     27 N20          2.1150    -0.0000     3.5970 nu         1 1OK      -0.801600
     28 C25          5.6890    -1.9930     5.9860 ca         1 1OK       0.126100
     29 C26          5.0690    -1.7020     7.1980 ca         1 1OK       0.133100
     30 C28          3.4930    -0.3070     6.0500 ca         1 1OK      -0.114000
     31 O29          5.5420    -2.2420     8.3530 os         1 1OK      -0.307900
     32 O30          6.7690    -2.8200     5.9560 os         1 1OK      -0.309900
     33 C31          7.3540    -3.0740     4.6770 c3         1 1OK       0.133400
     34 C32          8.5470    -4.0170     4.8400 c3         1 1OK      -0.091100
     35 C35          5.0560    -3.1090    10.5570 c3         1 1OK      -0.105600
     36 O36          3.2900     2.3330     3.3700 o          1 1OK      -0.545100
     37 O37          7.3720     3.1420     3.2570 o          1 1OK      -0.618300
     38 O38          5.2160     3.8030     2.1790 o          1 1OK      -0.618300
     39 H1           1.9450     0.0010    -0.9370 ha         1 1OK       0.142000
     40 H2           3.1610    -0.0000     1.1760 ha         1 1OK       0.124000
     41 H3          -0.5090    -0.0010     3.3840 ha         1 1OK       0.135000
     42 H4           3.9240    -0.5870     2.7250 h1         1 1OK       0.084700
     43 H5           5.6850    -1.6660     3.8690 ha         1 1OK       0.140000
     44 H6          -2.6830     0.0060     2.1190 ha         1 1OK       0.136000
     45 H7           4.3650     0.0380    10.0950 hc         1 1OK       0.048200
     46 H8           6.0320    -0.2430     9.5730 hc         1 1OK       0.048200
     47 H9           5.5000    -0.7890    11.1700 hc         1 1OK       0.048200
     48 H10          3.4860    -0.6310     8.1670 ha         1 1OK       0.150000
     49 H11          3.7310    -1.9750     9.3000 h1         1 1OK       0.044700
     50 H12          6.0530     0.8980     3.3870 hn         1 1OK       0.345500
     51 H13          7.2870     3.5830     5.7520 ha         1 1OK       0.159000
     52 H14          6.6300     4.7850     7.8040 ha         1 1OK       0.137500
     53 H15          4.4580     5.9470     7.9090 ha         1 1OK       0.132000
     54 H16          2.9470     5.9140     5.9620 ha         1 1OK       0.137500
     55 H17          3.6040     4.7170     3.9100 ha         1 1OK       0.159000
     56 H18         -3.8220     0.0160    -0.0350 h4         1 1OK       0.016100
     57 H19          0.1070    -0.8610    -2.8790 hn         1 1OK       0.436800
     58 H20          0.1200     0.8720    -2.8720 hn         1 1OK       0.436800
     59 H21          1.6310    -0.0120     4.4730 hn         1 1OK       0.451800
     60 H22          2.6320     0.3500     6.0720 ha         1 1OK       0.138000
     61 H23          6.6180    -3.5320     4.0280 h1         1 1OK       0.031700
     62 H24          7.6890    -2.1400     4.2410 h1         1 1OK       0.031700
     63 H25          8.2150    -4.9450     5.2910 hc         1 1OK       0.050367
     64 H26          8.9810    -4.2230     3.8690 hc         1 1OK       0.050367
     65 H27          9.2910    -3.5530     5.4770 hc         1 1OK       0.050367
     66 H28          4.7660    -4.0630    10.1330 hc         1 1OK       0.048200
     67 H29          6.1120    -3.1280    10.7990 hc         1 1OK       0.048200
     68 H30          4.4830    -2.9230    11.4570 hc         1 1OK       0.048200
@<TRIPOS>BOND
     1    21    20 ar  
     2    21    22 ar  
     3    20    19 ar  
     4    22    17 ar  
     5    19    18 ar  
     6    17    18 ar  
     7    17    16 1   
     8    34    33 1   
     9    38    16 2   
    10    33    32 1   
    11    36     8 2   
    12    16    37 2   
    13    16    15 1   
    14    32    28 1   
    15     8    15 1   
    16     8     6 1   
    17     9    28 ar  
    18     9     7 ar  
    19    28    29 ar  
    20    27     6 1   
    21    27     4 1   
    22     6     7 1   
    23     7    30 ar  
    24    29    31 1   
    25    29    13 ar  
    26     3     4 ar  
    27     3     2 ar  
    28    31    14 1   
    29     4     5 ar  
    30    30    13 ar  
    31    12    14 1   
    32     2     1 ar  
    33    14    35 1   
    34     5    11 ar  
    35     1    11 ar  
    36     1    25 ar  
    37    11    10 ar  
    38    26    25 1   
    39    25    23 ar  
    40    10    24 ar  
    41    23    24 ar  
    42     2    39 1   
    43     3    40 1   
    44     5    41 1   
    45     6    42 1   
    46     9    43 1   
    47    10    44 1   
    48    12    45 1   
    49    12    46 1   
    50    12    47 1   
    51    13    48 1   
    52    14    49 1   
    53    15    50 1   
    54    18    51 1   
    55    19    52 1   
    56    20    53 1   
    57    21    54 1   
    58    22    55 1   
    59    24    56 1   
    60    26    57 1   
    61    26    58 1   
    62    27    59 1   
    63    30    60 1   
    64    33    61 1   
    65    33    62 1   
    66    34    63 1   
    67    34    64 1   
    68    34    65 1   
    69    35    66 1   
    70    35    67 1   
    71    35    68 1   
@<TRIPOS>SUBSTRUCTURE
     1 1OK         1 TEMP              0 ****  ****    0 ROOT
