@<TRIPOS>MOLECULE
1OM
   52    54     1     0     0
SMALL
bcc


@<TRIPOS>ATOM
      1 O1           0.4010    -0.5940     0.5490 oh         1 1OM      -0.499100
      2 C5           1.6950    -0.2870     0.1910 ca         1 1OM       0.120100
      3 C4           2.6840    -0.4970     1.1660 ca         1 1OM      -0.185500
      4 C3           4.0080    -0.2050     0.8590 ca         1 1OM      -0.088000
      5 C2           4.3640     0.2940    -0.4010 ca         1 1OM      -0.105300
      6 C7           3.3650     0.4990    -1.3600 ca         1 1OM      -0.088000
      7 C6           2.0330     0.2120    -1.0750 ca         1 1OM      -0.185500
      8 C1           5.7890     0.6190    -0.7480 c3         1 1OM       0.090200
      9 C14          6.4860    -0.5460    -1.3880 ca         1 1OM      -0.115800
     10 C19          7.4180    -0.3180    -2.4060 ca         1 1OM      -0.090000
     11 C18          8.0800    -1.3700    -3.0250 ca         1 1OM      -0.187000
     12 C17          7.8230    -2.7110    -2.6500 ca         1 1OM       0.156600
     13 N2           8.4210    -3.7880    -3.3380 nh         1 1OM      -0.652000
     14 C23          8.3660    -5.0810    -2.7070 c3         1 1OM       0.183100
     15 C22          9.6230    -3.5000    -4.0790 c3         1 1OM       0.183100
     16 C16          6.8870    -2.9310    -1.6110 ca         1 1OM      -0.187000
     17 C15          6.2350    -1.8660    -1.0020 ca         1 1OM      -0.090000
     18 C8           6.5480     1.1520     0.4320 ca         1 1OM      -0.115800
     19 C13          7.2720     0.3180     1.2890 ca         1 1OM      -0.090000
     20 C12          7.9740     0.8320     2.3720 ca         1 1OM      -0.187000
     21 C11          7.9680     2.2210     2.6470 ca         1 1OM       0.156600
     22 N1           8.6010     2.7390     3.7970 nh         1 1OM      -0.652000
     23 C21          9.6160     1.9190     4.4080 c3         1 1OM       0.183100
     24 C20          8.8360     4.1600     3.8310 c3         1 1OM       0.183100
     25 C10          7.2420     3.0590     1.7670 ca         1 1OM      -0.187000
     26 C9           6.5470     2.5270     0.6890 ca         1 1OM      -0.090000
     27 H1          -0.1690    -0.4030    -0.2100 ho         1 1OM       0.417000
     28 H2           2.3990    -0.8850     2.1530 ha         1 1OM       0.140500
     29 H3           4.7900    -0.3600     1.6200 ha         1 1OM       0.139000
     30 H4           3.6320     0.8890    -2.3550 ha         1 1OM       0.139000
     31 H5           1.2540     0.3740    -1.8330 ha         1 1OM       0.140500
     32 H7           7.6370     0.7130    -2.7240 ha         1 1OM       0.133250
     33 H8           8.8050    -1.1370    -3.8200 ha         1 1OM       0.132000
     34 H9           8.7830    -5.0730    -1.6630 h1         1 1OM       0.037033
     35 H10          8.9420    -5.8260    -3.3160 h1         1 1OM       0.037033
     36 H11          7.2960    -5.4190    -2.6630 h1         1 1OM       0.037033
     37 H12         10.3990    -2.9730    -3.4590 h1         1 1OM       0.037033
     38 H13         10.0670    -4.4520    -4.4730 h1         1 1OM       0.037033
     39 H14          9.3610    -2.8490    -4.9560 h1         1 1OM       0.037033
     40 H15          6.6510    -3.9500    -1.2700 ha         1 1OM       0.132000
     41 H16          5.5020    -2.0670    -0.2040 ha         1 1OM       0.133250
     42 H17          7.2940    -0.7670     1.0970 ha         1 1OM       0.133250
     43 H18          8.5310     0.1330     3.0120 ha         1 1OM       0.132000
     44 H19         10.3990     1.5800     3.6760 h1         1 1OM       0.037033
     45 H20         10.1210     2.4870     5.2330 h1         1 1OM       0.037033
     46 H21          9.1270     1.0130     4.8570 h1         1 1OM       0.037033
     47 H22          7.8470     4.6910     3.8770 h1         1 1OM       0.037033
     48 H23          9.4010     4.5290     2.9310 h1         1 1OM       0.037033
     49 H24          9.4180     4.4270     4.7520 h1         1 1OM       0.037033
     50 H25          7.2090     4.1480     1.9230 ha         1 1OM       0.132000
     51 H26          5.9860     3.2050     0.0270 ha         1 1OM       0.133250
     52 H27          5.7580     1.4490    -1.5210 hc         1 1OM       0.058700
@<TRIPOS>BOND
     1     1     2 1   
     2     1    27 1   
     3     2     3 ar  
     4     2     7 ar  
     5     3     4 ar  
     6     3    28 1   
     7     4     5 ar  
     8     4    29 1   
     9     5     6 ar  
    10     5     8 1   
    11     6     7 ar  
    12     6    30 1   
    13     7    31 1   
    14     8     9 1   
    15     8    18 1   
    16     8    52 1   
    17     9    10 ar  
    18     9    17 ar  
    19    10    11 ar  
    20    10    32 1   
    21    11    12 ar  
    22    11    33 1   
    23    12    13 1   
    24    12    16 ar  
    25    13    14 1   
    26    13    15 1   
    27    14    34 1   
    28    14    35 1   
    29    14    36 1   
    30    15    37 1   
    31    15    38 1   
    32    15    39 1   
    33    16    17 ar  
    34    16    40 1   
    35    17    41 1   
    36    18    19 ar  
    37    18    26 ar  
    38    19    20 ar  
    39    19    42 1   
    40    20    21 ar  
    41    20    43 1   
    42    21    22 1   
    43    21    25 ar  
    44    22    23 1   
    45    22    24 1   
    46    23    44 1   
    47    23    45 1   
    48    23    46 1   
    49    24    47 1   
    50    24    48 1   
    51    24    49 1   
    52    25    26 ar  
    53    25    50 1   
    54    26    51 1   
@<TRIPOS>SUBSTRUCTURE
     1 1OM         1 TEMP              0 ****  ****    0 ROOT
