@<TRIPOS>MOLECULE
molecule
   52    54     1     0     0
SMALL
bcc


@<TRIPOS>ATOM
      1 O1           0.0000     0.0000     0.0000 oh         1 1OM      -0.524100
      2 C5           1.3590     0.0000     0.0000 ca         1 1OM       0.098100
      3 C4           2.0530     0.0000     1.2010 ca         1 1OM      -0.153000
      4 C3           3.4350    -0.0060     1.1990 ca         1 1OM      -0.110500
      5 C2           4.1250    -0.0110     0.0010 ca         1 1OM      -0.077300
      6 C7           3.4350    -0.0110    -1.1970 ca         1 1OM      -0.110500
      7 C6           2.0530    -0.0060    -1.2000 ca         1 1OM      -0.153000
      8 C1           5.6320    -0.0170     0.0020 c3         1 1OM       0.084200
      9 C14          6.1310    -1.0360    -0.9910 ca         1 1OM      -0.137800
     10 C19          7.0940    -0.6830    -1.9170 ca         1 1OM      -0.078000
     11 C18          7.5540    -1.6130    -2.8280 ca         1 1OM      -0.207000
     12 C17          7.0460    -2.9070    -2.8120 ca         1 1OM       0.203600
     13 N2           7.5080    -3.8500    -3.7320 nh         1 1OM      -0.742500
     14 C23          8.4370    -3.4480    -4.7920 c3         1 1OM       0.232850
     15 C22          7.0660    -5.2440    -3.6370 c3         1 1OM       0.232850
     16 C16          6.0780    -3.2580    -1.8810 ca         1 1OM      -0.207000
     17 C15          5.6260    -2.3230    -0.9700 ca         1 1OM      -0.078000
     18 C8           6.1400     1.3490    -0.3840 ca         1 1OM      -0.137800
     19 C13          5.6520     1.9720    -1.5170 ca         1 1OM      -0.078000
     20 C12          6.1100     3.2270    -1.8690 ca         1 1OM      -0.207000
     21 C11          7.0640     3.8620    -1.0820 ca         1 1OM       0.203600
     22 N1           7.5290     5.1300    -1.4360 nh         1 1OM      -0.742500
     23 C21          8.6290     5.7410    -0.6850 c3         1 1OM       0.232850
     24 C20          6.9180     5.8500    -2.5550 c3         1 1OM       0.232850
     25 C10          7.5510     3.2330     0.0560 ca         1 1OM      -0.207000
     26 C9           7.0880     1.9790     0.4020 ca         1 1OM      -0.078000
     27 H1          -0.3140     0.8890    -0.0030 ho         1 1OM       0.417000
     28 H2           1.5120     0.0040     2.1400 ha         1 1OM       0.138000
     29 H3           3.9780    -0.0060     2.1360 ha         1 1OM       0.138000
     30 H4           3.9780    -0.0150    -2.1340 ha         1 1OM       0.138000
     31 H5           1.5140    -0.0060    -2.1400 ha         1 1OM       0.138000
     32 H7           7.4900     0.3260    -1.9290 ha         1 1OM       0.136500
     33 H8           8.3090    -1.3350    -3.5530 ha         1 1OM       0.130750
     34 H9           8.0020    -2.6380    -5.3640 h1         1 1OM       0.033950
     35 H10          9.3690    -3.1180    -4.3490 h1         1 1OM       0.033950
     36 H11          8.6260    -4.2910    -5.4450 h1         1 1OM       0.033950
     37 H12          7.5790    -5.8380    -4.3830 h1         1 1OM       0.033950
     38 H13          7.2930    -5.6280    -2.6500 h1         1 1OM       0.033950
     39 H14          5.9970    -5.2960    -3.8070 h1         1 1OM       0.033950
     40 H15          5.6810    -4.2660    -1.8650 ha         1 1OM       0.130750
     41 H16          4.8710    -2.5960    -0.2430 ha         1 1OM       0.136500
     42 H17          4.9080     1.4760    -2.1290 ha         1 1OM       0.136500
     43 H18          5.7270     3.7150    -2.7580 ha         1 1OM       0.130750
     44 H19          8.3130     5.9230     0.3350 h1         1 1OM       0.033950
     45 H20          9.4810     5.0730    -0.6860 h1         1 1OM       0.033950
     46 H21          8.9060     6.6800    -1.1500 h1         1 1OM       0.033950
     47 H22          5.8500     5.9330    -2.3920 h1         1 1OM       0.033950
     48 H23          7.1010     5.3090    -3.4760 h1         1 1OM       0.033950
     49 H24          7.3500     6.8410    -2.6270 h1         1 1OM       0.033950
     50 H25          8.2940     3.7250     0.6710 ha         1 1OM       0.130750
     51 H26          7.4680     1.4880     1.2900 ha         1 1OM       0.136500
     52 H27          5.9920    -0.2700     0.9920 hc         1 1OM       0.064700
@<TRIPOS>BOND
     1    23    22 1   
     2    22    24 1   
     3    22    21 1   
     4    20    21 ar  
     5    20    19 ar  
     6    21    25 ar  
     7    19    18 ar  
     8    25    26 ar  
     9    18    26 ar  
    10    18     8 1   
    11    10    11 ar  
    12    10     9 ar  
    13     8     9 1   
    14     8     5 1   
    15    11    12 ar  
    16     9    17 ar  
    17     4     5 ar  
    18     4     3 ar  
    19    15    13 1   
    20    12    13 1   
    21    12    16 ar  
    22    13    14 1   
    23     5     6 ar  
    24    17    16 ar  
    25     3     2 ar  
    26     6     7 ar  
    27     2     7 ar  
    28     2     1 1   
    29     1    27 1   
    30     3    28 1   
    31     4    29 1   
    32     6    30 1   
    33     7    31 1   
    34    10    32 1   
    35    11    33 1   
    36    14    34 1   
    37    14    35 1   
    38    14    36 1   
    39    15    37 1   
    40    15    38 1   
    41    15    39 1   
    42    16    40 1   
    43    17    41 1   
    44    19    42 1   
    45    20    43 1   
    46    23    44 1   
    47    23    45 1   
    48    23    46 1   
    49    24    47 1   
    50    24    48 1   
    51    24    49 1   
    52    25    50 1   
    53    26    51 1   
    54     8    52 1   
@<TRIPOS>SUBSTRUCTURE
     1 1OM         1 TEMP              0 ****  ****    0 ROOT
