@<TRIPOS>MOLECULE
1ON
   18    19     1     0     0
SMALL
bcc


@<TRIPOS>ATOM
      1 O10         -0.0430     0.0730    -0.0000 o          1 1ON      -0.522100
      2 C7           1.1860     0.0230    -0.0130 c          1 1ON       0.584700
      3 C8           2.0790    -0.0200     1.2150 c3         1 1ON      -0.186400
      4 C9           3.5260    -0.0760     0.7060 c3         1 1ON      -0.040100
      5 C6           2.0680    -0.0070    -1.1990 ca         1 1ON      -0.188600
      6 C1           1.7350     0.0130    -2.5440 ca         1 1ON      -0.055000
      7 C2           2.7680    -0.0240    -3.4900 ca         1 1ON      -0.150000
      8 C5           3.4210    -0.0650    -0.7840 ca         1 1ON      -0.052300
      9 C4           4.4390    -0.1010    -1.7240 ca         1 1ON      -0.134000
     10 C3           4.1000    -0.0810    -3.0830 ca         1 1ON      -0.098000
     11 H1           1.9020     0.8900     1.8400 hc         1 1ON       0.078700
     12 H2           4.0400    -1.0050     1.0610 hc         1 1ON       0.062700
     13 H3           0.6810     0.0580    -2.8580 ha         1 1ON       0.151000
     14 H4           2.5230    -0.0080    -4.5620 ha         1 1ON       0.137000
     15 H5           5.4930    -0.1460    -1.4140 ha         1 1ON       0.138000
     16 H6           4.9000    -0.1100    -3.8390 ha         1 1ON       0.134000
     17 H7           1.8280    -0.9180     1.8310 hc         1 1ON       0.078700
     18 H8           4.1140     0.8030     1.0700 hc         1 1ON       0.062700
@<TRIPOS>BOND
     1     1     2 2   
     2     2     3 1   
     3     2     5 1   
     4     3     4 1   
     5     3    11 1   
     6     3    17 1   
     7     4     8 1   
     8     4    12 1   
     9     4    18 1   
    10     5     6 ar  
    11     5     8 ar  
    12     6     7 ar  
    13     6    13 1   
    14     7    10 ar  
    15     7    14 1   
    16     8     9 ar  
    17     9    10 ar  
    18     9    15 1   
    19    10    16 1   
@<TRIPOS>SUBSTRUCTURE
     1 1ON         1 TEMP              0 ****  ****    0 ROOT
