@<TRIPOS>MOLECULE
molecule
   18    19     1     0     0
SMALL
bcc


@<TRIPOS>ATOM
      1 O10          0.0000     0.0000     0.0000 o          1 1ON      -0.513100
      2 C7           1.2120     0.0000     0.0000 c          1 1ON       0.588700
      3 C8           2.0980     0.0000     1.2230 c3         1 1ON      -0.185400
      4 C9           3.5350    -0.0010     0.6830 c3         1 1ON      -0.039100
      5 C6           2.0770    -0.0080    -1.1920 ca         1 1ON      -0.195600
      6 C1           1.7370    -0.0160    -2.5540 ca         1 1ON      -0.057000
      7 C2           2.7260    -0.0210    -3.5110 ca         1 1ON      -0.148000
      8 C5           3.4220    -0.0020    -0.8230 ca         1 1ON      -0.054300
      9 C4           4.4040    -0.0070    -1.7970 ca         1 1ON      -0.132000
     10 C3           4.0590    -0.0190    -3.1360 ca         1 1ON      -0.095000
     11 H1           1.9250    -0.9030     1.7960 hc         1 1ON       0.079200
     12 H2           4.0410     0.9020     1.0040 hc         1 1ON       0.062700
     13 H3           0.6950    -0.0170    -2.8510 ha         1 1ON       0.144000
     14 H4           2.4610    -0.0310    -4.5610 ha         1 1ON       0.136000
     15 H5           5.4480    -0.0050    -1.5090 ha         1 1ON       0.133000
     16 H6           4.8330    -0.0240    -3.8940 ha         1 1ON       0.134000
     17 H7           1.9260     0.9040     1.7950 hc         1 1ON       0.079200
     18 H8           4.0400    -0.9030     1.0060 hc         1 1ON       0.062700
@<TRIPOS>BOND
     1     6     7 ar  
     2     6     5 ar  
     3     7    10 ar  
     4     1     2 2   
     5     5     2 1   
     6     5     8 ar  
     7    10     9 ar  
     8     2     3 1   
     9     8     9 ar  
    10     8     4 1   
    11     3     4 1   
    12     3    11 1   
    13     4    12 1   
    14     6    13 1   
    15     7    14 1   
    16     9    15 1   
    17    10    16 1   
    18     3    17 1   
    19     4    18 1   
@<TRIPOS>SUBSTRUCTURE
     1 1ON         1 TEMP              0 ****  ****    0 ROOT
