@<TRIPOS>MOLECULE
1ON
   18    19     1     0     0
SMALL
bcc


@<TRIPOS>ATOM
      1 O10        -0.0370   -0.0040    0.0120 o         1 1ON     -0.522100
      2 C7          1.1930   -0.0040   -0.0190 c         1 1ON      0.584700
      3 C8          2.1050    0.0010    1.1960 c3        1 1ON     -0.186400
      4 C9          3.5450   -0.0010    0.6660 c3        1 1ON     -0.040100
      5 C6          2.0580   -0.0090   -1.2180 ca        1 1ON     -0.188600
      6 C1          1.7040   -0.0150   -2.5580 ca        1 1ON     -0.055000
      7 C2          2.7240   -0.0200   -3.5180 ca        1 1ON     -0.150000
      8 C5          3.4180   -0.0070   -0.8230 ca        1 1ON     -0.052300
      9 C4          4.4230   -0.0110   -1.7770 ca        1 1ON     -0.134000
     10 C3          4.0630   -0.0180   -3.1320 ca        1 1ON     -0.098000
     11 H1          1.9000   -0.9010    1.8240 hc        1 1ON      0.078700
     12 H2          4.1020    0.9060    1.0130 hc        1 1ON      0.062700
     13 H3          0.6450   -0.0170   -2.8560 ha        1 1ON      0.151000
     14 H4          2.4620   -0.0250   -4.5870 ha        1 1ON      0.137000
     15 H5          5.4810   -0.0100   -1.4830 ha        1 1ON      0.138000
     16 H6          4.8520   -0.0210   -3.8990 ha        1 1ON      0.134000
     17 H7          1.9000    0.9090    1.8160 hc        1 1ON      0.078700
     18 H8          4.1020   -0.9040    1.0210 hc        1 1ON      0.062700
@<TRIPOS>BOND
     1    1    2 2   
     2    2    3 1   
     3    2    5 1   
     4    3    4 1   
     5    3   11 1   
     6    3   17 1   
     7    4    8 1   
     8    4   12 1   
     9    4   18 1   
    10    5    6 ar  
    11    5    8 ar  
    12    6    7 ar  
    13    6   13 1   
    14    7   10 ar  
    15    7   14 1   
    16    8    9 ar  
    17    9   10 ar  
    18    9   15 1   
    19   10   16 1   
@<TRIPOS>SUBSTRUCTURE
     1 1ON         1 TEMP              0 ****  ****    0 ROOT
