@<TRIPOS>MOLECULE
molecule
   45    48     1     0     0
SMALL
bcc


@<TRIPOS>ATOM
      1 F33          0.0000     0.0000     0.0000 f          1 1OO      -0.218967
      2 C30          1.4000     0.0000     0.0000 c3         1 1OO       0.670200
      3 F31          1.8650     0.0000     1.3190 f          1 1OO      -0.218967
      4 F32          1.8660    -1.1430    -0.6590 f          1 1OO      -0.218967
      5 C27          1.9020     1.2290    -0.7110 ca         1 1OO      -0.127300
      6 C28          3.1100     1.1950    -1.3820 ca         1 1OO      -0.105000
      7 C29          3.5710     2.3230    -2.0330 ca         1 1OO      -0.030000
      8 C26          1.1520     2.3910    -0.6970 ca         1 1OO      -0.105000
      9 C25          1.6130     3.5200    -1.3500 ca         1 1OO      -0.030000
     10 C24          2.8250     3.4860    -2.0150 ca         1 1OO      -0.292500
     11 S21          3.4120     4.9240    -2.8470 sy         1 1OO       1.425200
     12 O22          4.3160     4.4700    -3.8440 o          1 1OO      -0.622300
     13 O23          2.2680     5.7150    -3.1370 o          1 1OO      -0.622300
     14 N20          4.3130     5.7870    -1.7580 nu         1 1OO      -0.760500
     15 C19          5.4500     5.2110    -1.1770 ca         1 1OO       0.092600
     16 C13          5.7740     5.4930     0.1440 ca         1 1OO       0.161900
     17 F17          4.9930     6.3220     0.8700 f          1 1OO      -0.118900
     18 C34          6.2500     4.3540    -1.9210 ca         1 1OO      -0.130000
     19 C18          7.3730     3.7800    -1.3550 ca         1 1OO      -0.160000
     20 C12          7.7100     4.0560    -0.0430 ca         1 1OO       0.170900
     21 F16          8.8090     3.4930     0.5050 f          1 1OO      -0.119900
     22 C11          6.9100     4.9150     0.7180 ca         1 1OO      -0.215600
     23 C10          7.2640     5.2120     2.1200 c          1 1OO       0.625900
     24 O15          7.9120     6.2080     2.3850 o          1 1OO      -0.499100
     25 C09          6.8370     4.3070     3.1930 cc         1 1OO      -0.237400
     26 C08          6.0320     3.2110     3.0680 cd         1 1OO      -0.028100
     27 C05          7.1970     4.3970     4.6200 ca         1 1OO      -0.169100
     28 C06          6.5570     3.3150     5.2500 ca         1 1OO       0.455800
     29 N07          5.8620     2.6280     4.2800 na         1 1OO      -0.259100
     30 N04          6.7010     3.1360     6.5560 nb         1 1OO      -0.698000
     31 C03          7.4320     3.9480     7.2900 ca         1 1OO       0.458200
     32 C02          8.0890     5.0340     6.7340 ca         1 1OO      -0.123900
     33 Cl           9.0440     6.0870     7.7300 cl         1 1OO      -0.092400
     34 C01          7.9750     5.2720     5.3740 ca         1 1OO      -0.033000
     35 H1           3.6950     0.2830    -1.3980 ha         1 1OO       0.156500
     36 H2           4.5190     2.2960    -2.5570 ha         1 1OO       0.160000
     37 H3           0.2030     2.4170    -0.1760 ha         1 1OO       0.156500
     38 H4           1.0270     4.4300    -1.3370 ha         1 1OO       0.160000
     39 H5           4.0660     6.7320    -1.5410 hn         1 1OO       0.477800
     40 H6           5.9920     4.1330    -2.9500 ha         1 1OO       0.198000
     41 H7           7.9930     3.1130    -1.9420 ha         1 1OO       0.162000
     42 H8           5.5950     2.8610     2.1400 h4         1 1OO       0.178000
     43 H9           5.3120     1.8090     4.4450 hn         1 1OO       0.312700
     44 H10          7.5210     3.7640     8.3540 h4         1 1OO       0.039100
     45 H11          8.4770     6.1130     4.9110 ha         1 1OO       0.174000
@<TRIPOS>BOND
     1    21    20 1
     2    33    32 1
     3    31    32 ar
     4    31    30 ar
     5    32    34 ar
     6    30    28 ar
     7    34    27 ar
     8    20    19 ar
     9    20    22 ar
    10    28    27 ar
    11    28    29 1
    12    27    25 1
    13    19    18 ar
    14    29    26 1
    15    25    26 2
    16    25    23 1
    17    23    24 2
    18    23    22 1
    19    22    16 ar
    20    18    15 ar
    21    16    15 ar
    22    16    17 1
    23    15    14 1
    24    12    11 2
    25    14    11 1
    26    13    11 2
    27    11    10 1
    28    10     9 ar
    29    10     7 ar
    30     9     8 ar
    31     7     6 ar
    32     8     5 ar
    33     6     5 ar
    34     5     2 1
    35     2     3 1
    36     2     1 1
    37     2     4 1
    38     6    35 1
    39     7    36 1
    40     8    37 1
    41     9    38 1
    42    14    39 1
    43    18    40 1
    44    19    41 1
    45    26    42 1
    46    29    43 1
    47    31    44 1
    48    34    45 1
@<TRIPOS>SUBSTRUCTURE
     1 1OO         1 TEMP              0 ****  ****    0 ROOT
