@<TRIPOS>MOLECULE
1OO
   45    48     1     0     0
SMALL
bcc


@<TRIPOS>ATOM
      1 F33          0.7300     0.8830    -1.4800 f          1 1OO      -0.228967
      2 C30          1.6870     0.3710    -0.6380 c3         1 1OO       0.681200
      3 F31          1.1880     0.5960     0.6210 f          1 1OO      -0.228967
      4 F32          2.7400     1.2440    -0.7490 f          1 1OO      -0.228967
      5 C27          2.0420    -1.0880    -0.9260 ca         1 1OO      -0.100300
      6 C28          3.0680    -1.3850    -1.8240 ca         1 1OO      -0.109000
      7 C29          3.3730    -2.7170    -2.0970 ca         1 1OO      -0.019000
      8 C26          1.3290    -2.1090    -0.2960 ca         1 1OO      -0.109000
      9 C25          1.6440    -3.4370    -0.5780 ca         1 1OO      -0.019000
     10 C24          2.6630    -3.7550    -1.4840 ca         1 1OO      -0.362500
     11 S21          3.0710    -5.3720    -1.7870 sy         1 1OO       1.528200
     12 O22          2.6530    -6.1540    -0.7030 o          1 1OO      -0.647300
     13 O23          4.4300    -5.4560    -2.1260 o          1 1OO      -0.647300
     14 N20          2.1300    -5.6490    -3.0970 nu         1 1OO      -0.777500
     15 C19          2.2300    -6.7530    -3.9580 ca         1 1OO       0.109600
     16 C13          1.0540    -7.3150    -4.5420 ca         1 1OO       0.139900
     17 F17         -0.1530    -6.7600    -4.2740 f          1 1OO      -0.126900
     18 C34          3.4750    -7.3260    -4.2880 ca         1 1OO      -0.119000
     19 C18          3.5560    -8.4210    -5.1350 ca         1 1OO      -0.154000
     20 C12          2.3930    -8.9750    -5.6990 ca         1 1OO       0.159900
     21 F16          2.5020   -10.0380    -6.5280 f          1 1OO      -0.120900
     22 C11          1.1310    -8.4250    -5.4030 ca         1 1OO      -0.207600
     23 C10         -0.1080    -8.9800    -6.0270 c          1 1OO       0.631900
     24 O15         -0.5170    -8.5410    -7.1080 o          1 1OO      -0.509100
     25 C09         -0.7740   -10.0400    -5.2960 cc         1 1OO      -0.228400
     26 C08         -0.4020   -10.5910    -4.0600 cd         1 1OO      -0.021100
     27 C05         -1.9710   -10.7320    -5.7190 ca         1 1OO      -0.147100
     28 C06         -2.2760   -11.7040    -4.6810 ca         1 1OO       0.406800
     29 N07         -1.2890   -11.5850    -3.6820 na         1 1OO      -0.270100
     30 N04         -3.3410   -12.5600    -4.7130 nb         1 1OO      -0.653000
     31 C03         -4.1180   -12.4500    -5.7930 ca         1 1OO       0.420200
     32 C02         -3.9000   -11.5300    -6.8590 ca         1 1OO      -0.123900
     33 Cl          -4.9820   -11.5170    -8.1620 cl         1 1OO      -0.073400
     34 C01         -2.8160   -10.6590    -6.8280 ca         1 1OO      -0.037000
     35 H1           3.6350    -0.5720    -2.3050 ha         1 1OO       0.165000
     36 H2           4.1970    -2.9580    -2.7930 ha         1 1OO       0.167000
     37 H3           0.5300    -1.8650     0.4230 ha         1 1OO       0.165000
     38 H4           1.0960    -4.2500    -0.0670 ha         1 1OO       0.167000
     39 H5           1.3420    -5.0760    -3.3050 hn         1 1OO       0.461800
     40 H6           4.4110    -6.9050    -3.8730 ha         1 1OO       0.183000
     41 H7           4.5360    -8.8580    -5.3830 ha         1 1OO       0.165000
     42 H8           0.4500   -10.3310    -3.4230 h4         1 1OO       0.181000
     43 H9          -1.2500   -12.1250    -2.8560 hn         1 1OO       0.318700
     44 H10         -4.9820   -13.1410    -5.8250 h4         1 1OO       0.039100
     45 H11         -2.6130    -9.9320    -7.6330 ha         1 1OO       0.179000
@<TRIPOS>BOND
     1     1     2 1   
     2     2     3 1   
     3     2     4 1   
     4     2     5 1   
     5     5     6 ar  
     6     5     8 ar  
     7     6     7 ar  
     8     6    35 1   
     9     7    10 ar  
    10     7    36 1   
    11     8     9 ar  
    12     8    37 1   
    13     9    10 ar  
    14     9    38 1   
    15    10    11 1   
    16    11    12 2   
    17    11    13 2   
    18    11    14 1   
    19    14    15 1   
    20    14    39 1   
    21    15    16 ar  
    22    15    18 ar  
    23    16    17 1   
    24    16    22 ar  
    25    18    19 ar  
    26    18    40 1   
    27    19    20 ar  
    28    19    41 1   
    29    20    21 1   
    30    20    22 ar  
    31    22    23 1   
    32    23    24 2   
    33    23    25 1   
    34    25    26 2   
    35    25    27 1   
    36    26    29 1   
    37    26    42 1   
    38    27    28 ar  
    39    27    34 ar  
    40    28    29 1   
    41    28    30 ar  
    42    29    43 1   
    43    30    31 ar  
    44    31    32 ar  
    45    31    44 1   
    46    32    33 1   
    47    32    34 ar  
    48    34    45 1   
@<TRIPOS>SUBSTRUCTURE
     1 1OO         1 TEMP              0 ****  ****    0 ROOT
