@<TRIPOS>MOLECULE
molecule
   28    29     1     0     0
SMALL
bcc


@<TRIPOS>ATOM
      1 F4           0.0000     0.0000     0.0000 f          1 1OQ      -0.213300
      2 C14          1.3990     0.0000     0.0000 c3         1 1OQ       0.584600
      3 F2           1.8660     0.0000     1.3190 f          1 1OQ      -0.213300
      4 F3           1.8650    -1.1420    -0.6600 f          1 1OQ      -0.213300
      5 C10          1.9010     1.2320    -0.7110 ca         1 1OQ       0.343600
      6 N2           1.0410     2.1430    -1.1210 nb         1 1OQ      -0.644000
      7 C11          3.2570     1.3940    -0.9190 ca         1 1OQ      -0.199300
      8 C12          3.7080     2.5330    -1.5680 ca         1 1OQ      -0.089000
      9 C13          2.7750     3.4700    -1.9850 ca         1 1OQ      -0.216300
     10 C9           1.4340     3.2350    -1.7460 ca         1 1OQ       0.429600
     11 C7           0.4100     4.2460    -2.1950 c3         1 1OQ       0.009400
     12 C8           0.9660     5.6020    -2.0590 c1         1 1OQ       0.212700
     13 N1           1.4000     6.6490    -1.9730 n1         1 1OQ      -0.353800
     14 C4           0.0530     3.9920    -3.6370 ca         1 1OQ      -0.109300
     15 C3          -1.2530     3.7000    -3.9840 ca         1 1OQ      -0.083000
     16 C2          -1.5820     3.4670    -5.3060 ca         1 1OQ      -0.165000
     17 C5           1.0300     4.0570    -4.6130 ca         1 1OQ      -0.083000
     18 C6           0.7030     3.8250    -5.9350 ca         1 1OQ      -0.165000
     19 C1          -0.6030     3.5260    -6.2830 ca         1 1OQ       0.146900
     20 F1          -0.9230     3.2990    -7.5760 f          1 1OQ      -0.135900
     21 H1           3.9590     0.6420    -0.5800 ha         1 1OQ       0.156000
     22 H2           4.7660     2.6890    -1.7440 ha         1 1OQ       0.152000
     23 H3           3.0920     4.3700    -2.4970 ha         1 1OQ       0.153000
     24 H4          -0.4790     4.1570    -1.5820 hc         1 1OQ       0.109700
     25 H5          -2.0190     3.6530    -3.2190 ha         1 1OQ       0.141000
     26 H6          -2.6050     3.2360    -5.5770 ha         1 1OQ       0.151000
     27 H7           2.0520     4.2910    -4.3400 ha         1 1OQ       0.141000
     28 H8           1.4700     3.8740    -6.6990 ha         1 1OQ       0.151000
@<TRIPOS>BOND
     1     8     9 ar  
     2     8     7 ar  
     3     9    10 ar  
     4     7     5 ar  
     5    10    11 1   
     6    10     6 ar  
     7    11    12 1   
     8    11    14 1   
     9     5     6 ar  
    10     5     2 1   
    11     1     2 1   
    12    12    13 3   
    13     2     3 1   
    14     2     4 1   
    15    17    14 ar  
    16    17    18 ar  
    17    14    15 ar  
    18    18    19 ar  
    19    15    16 ar  
    20    19    16 ar  
    21    19    20 1   
    22     7    21 1   
    23     8    22 1   
    24     9    23 1   
    25    11    24 1   
    26    15    25 1   
    27    16    26 1   
    28    17    27 1   
    29    18    28 1   
@<TRIPOS>SUBSTRUCTURE
     1 1OQ         1 TEMP              0 ****  ****    0 ROOT
