@<TRIPOS>MOLECULE
1OQ
   28    29     1     0     0
SMALL
bcc


@<TRIPOS>ATOM
      1 F4           0.0000     0.0000     0.0000 f          1 1OQ      -0.201967
      2 C14          1.3990     0.0000     0.0000 c3         1 1OQ       0.540600
      3 F2           1.8660     0.0000     1.3190 f          1 1OQ      -0.201967
      4 F3           1.8650    -1.1420    -0.6600 f          1 1OQ      -0.201967
      5 C10          1.9010     1.2320    -0.7110 ca         1 1OQ       0.262600
      6 N2           1.0410     2.1430    -1.1210 nb         1 1OQ      -0.496000
      7 C11          3.2570     1.3940    -0.9190 ca         1 1OQ      -0.149300
      8 C12          3.7080     2.5330    -1.5680 ca         1 1OQ      -0.067000
      9 C13          2.7750     3.4700    -1.9850 ca         1 1OQ      -0.176300
     10 C9           1.4340     3.2350    -1.7460 ca         1 1OQ       0.351600
     11 C7           0.4100     4.2460    -2.1950 c3         1 1OQ       0.108400
     12 C8           0.9660     5.6020    -2.0590 c1         1 1OQ       0.189700
     13 N1           1.4000     6.6490    -1.9730 n1         1 1OQ      -0.369800
     14 C4           0.0530     3.9920    -3.6370 ca         1 1OQ      -0.127300
     15 C3          -1.2530     3.7000    -3.9840 ca         1 1OQ      -0.057500
     16 C2          -1.5820     3.4670    -5.3060 ca         1 1OQ      -0.128500
     17 C5           1.0300     4.0570    -4.6130 ca         1 1OQ      -0.057500
     18 C6           0.7030     3.8250    -5.9350 ca         1 1OQ      -0.128500
     19 C1          -0.6030     3.5260    -6.2830 ca         1 1OQ       0.118900
     20 F1          -0.9230     3.2990    -7.5760 f          1 1OQ      -0.124900
     21 H1           3.9590     0.6420    -0.5800 ha         1 1OQ       0.128000
     22 H2           4.7660     2.6890    -1.7440 ha         1 1OQ       0.120000
     23 H3           3.0920     4.3700    -2.4970 ha         1 1OQ       0.130000
     24 H4          -0.4790     4.1570    -1.5820 hc         1 1OQ       0.064700
     25 H5          -2.0190     3.6530    -3.2190 ha         1 1OQ       0.114000
     26 H6          -2.6050     3.2360    -5.5770 ha         1 1OQ       0.123000
     27 H7           2.0520     4.2910    -4.3400 ha         1 1OQ       0.114000
     28 H8           1.4700     3.8740    -6.6990 ha         1 1OQ       0.123000
@<TRIPOS>BOND
     1     1     2 1   
     2     2     3 1   
     3     2     4 1   
     4     2     5 1   
     5     5     6 ar  
     6     5     7 ar  
     7     6    10 ar  
     8     7     8 ar  
     9     7    21 1   
    10     8     9 ar  
    11     8    22 1   
    12     9    10 ar  
    13     9    23 1   
    14    10    11 1   
    15    11    12 1   
    16    11    14 1   
    17    11    24 1   
    18    12    13 3   
    19    14    15 ar  
    20    14    17 ar  
    21    15    16 ar  
    22    15    25 1   
    23    16    19 ar  
    24    16    26 1   
    25    17    18 ar  
    26    17    27 1   
    27    18    19 ar  
    28    18    28 1   
    29    19    20 1   
@<TRIPOS>SUBSTRUCTURE
     1 1OQ         1 TEMP              0 ****  ****    0 ROOT
