@<TRIPOS>MOLECULE
1OQ
   28    29     1     0     0
SMALL
bcc


@<TRIPOS>ATOM
      1 F4           0.5490    -0.5520    -1.3300 f          1 1OQ      -0.226967
      2 C14          1.6370    -0.1670    -0.5840 c3         1 1OQ       0.599600
      3 F2           1.2740    -0.4300     0.7100 f          1 1OQ      -0.226967
      4 F3           2.6000    -1.0950    -0.8820 f          1 1OQ      -0.226967
      5 C10          2.0720     1.2930    -0.8330 ca         1 1OQ       0.334600
      6 N2           3.1450     1.7290    -0.1390 nb         1 1OQ      -0.613000
      7 C11          1.3510     2.0830    -1.7450 ca         1 1OQ      -0.193300
      8 C12          1.7700     3.4000    -1.9440 ca         1 1OQ      -0.092000
      9 C13          2.8750     3.8750    -1.2400 ca         1 1OQ      -0.208300
     10 C9           3.5390     3.0070    -0.3440 ca         1 1OQ       0.409600
     11 C7           4.7500     3.5280     0.4080 c3         1 1OQ       0.014400
     12 C8           4.5850     3.3380     1.8410 c1         1 1OQ       0.215700
     13 N1           4.4540     3.2010     2.9870 n1         1 1OQ      -0.345800
     14 C4           6.0100     2.8830    -0.0900 ca         1 1OQ      -0.114300
     15 C3           6.3300     1.5670     0.2630 ca         1 1OQ      -0.081000
     16 C2           7.4970     0.9740    -0.2070 ca         1 1OQ      -0.167500
     17 C5           6.8740     3.6090    -0.9170 ca         1 1OQ      -0.081000
     18 C6           8.0450     3.0330    -1.3970 ca         1 1OQ      -0.167500
     19 C1           8.3600     1.7080    -1.0420 ca         1 1OQ       0.138900
     20 F1           9.4980     1.1390    -1.5040 f          1 1OQ      -0.135900
     21 H1           0.4830     1.6710    -2.2810 ha         1 1OQ       0.168000
     22 H2           1.2330     4.0530    -2.6490 ha         1 1OQ       0.153000
     23 H3           3.2260     4.9080    -1.3770 ha         1 1OQ       0.152000
     24 H4           4.8130     4.6460     0.2260 hc         1 1OQ       0.088700
     25 H5           5.6510     0.9930     0.9160 ha         1 1OQ       0.148000
     26 H6           7.7510    -0.0600     0.0670 ha         1 1OQ       0.154500
     27 H7           6.6330     4.6470    -1.1950 ha         1 1OQ       0.148000
     28 H8           8.7260     3.6000    -2.0480 ha         1 1OQ       0.154500
@<TRIPOS>BOND
     1     1     2 1   
     2     2     3 1   
     3     2     4 1   
     4     2     5 1   
     5     5     6 ar  
     6     5     7 ar  
     7     6    10 ar  
     8     7     8 ar  
     9     7    21 1   
    10     8     9 ar  
    11     8    22 1   
    12     9    10 ar  
    13     9    23 1   
    14    10    11 1   
    15    11    12 1   
    16    11    14 1   
    17    11    24 1   
    18    12    13 3   
    19    14    15 ar  
    20    14    17 ar  
    21    15    16 ar  
    22    15    25 1   
    23    16    19 ar  
    24    16    26 1   
    25    17    18 ar  
    26    17    27 1   
    27    18    19 ar  
    28    18    28 1   
    29    19    20 1   
@<TRIPOS>SUBSTRUCTURE
     1 1OQ         1 TEMP              0 ****  ****    0 ROOT
