@<TRIPOS>MOLECULE
1OR
   52    55     1     0     0
SMALL
bcc


@<TRIPOS>ATOM
      1 P            0.3630    -0.0250    -0.1670 p5         1 1OR       1.611500
      2 O1P          0.3290    -0.3770    -1.7120 oh         1 1OR      -0.734400
      3 O2P         -0.5600     1.0280     0.2120 o          1 1OR      -0.800300
      4 C5'          2.4300     0.1120     1.4160 c3         1 1OR       0.176400
      5 O5'          1.9210     0.2670     0.1050 os         1 1OR      -0.558200
      6 C4'          2.0740    -1.3010     1.8590 c3         1 1OR       0.048100
      7 O4'          2.4800    -1.6440     3.1790 os         1 1OR      -0.404600
      8 C3'          0.5320    -1.4270     1.8610 c3         1 1OR       0.063100
      9 O3'          0.0880    -1.4720     0.5290 os         1 1OR      -0.528200
     10 C2'          0.3100    -2.6920     2.6970 c3         1 1OR       0.142100
     11 O2'          0.4260    -3.8880     1.9560 oh         1 1OR      -0.597800
     12 C1'          1.5520    -2.6650     3.6710 c3         1 1OR       0.248800
     13 N1          -0.8770     0.4310     7.1830 nb         1 1OR      -0.790000
     14 C2          -0.9840     0.3600     5.8360 ca         1 1OR       0.691900
     15 N3          -0.3670    -0.4710     4.9600 nb         1 1OR      -0.755000
     16 C4           0.4690    -1.3520     5.5780 ca         1 1OR       0.466800
     17 C5           0.6900    -1.3950     7.0230 ca         1 1OR      -0.214200
     18 C6          -0.0360    -0.4520     7.8300 ca         1 1OR       0.765200
     19 N7           1.5910    -2.4330     7.3230 nc         1 1OR      -0.533100
     20 C8           1.9130    -2.9860     6.1520 cd         1 1OR       0.415700
     21 N9           1.2350    -2.4060     5.0410 na         1 1OR      -0.280000
     22 N6           0.0390    -0.4410     9.2120 nh         1 1OR      -0.761300
     23 C26          1.2080    -0.9240     9.9190 c3         1 1OR       0.218300
     24 C27          1.0050    -2.2740    10.6100 c3         1 1OR      -0.099400
     25 C28          2.2610    -2.6670    11.3450 c3         1 1OR      -0.091600
     26 C23         -0.8790     0.3640     9.9950 c3         1 1OR       0.218300
     27 C24         -0.4960     1.8350    10.1630 c3         1 1OR      -0.099400
     28 C25         -1.4960     2.5300    11.0500 c3         1 1OR      -0.091600
     29 H1          -0.2580     0.1610    -2.2430 ho         1 1OR       0.488000
     30 H2           3.5400     0.2620     1.3450 h1         1 1OR       0.081200
     31 H3           1.9780     0.8890     2.0870 h1         1 1OR       0.081200
     32 H4           2.5400    -2.0570     1.1610 h1         1 1OR       0.085700
     33 H5           0.0400    -0.5510     2.3770 h1         1 1OR       0.111700
     34 H6          -0.6710    -2.6770     3.2360 h1         1 1OR       0.097700
     35 H7          -0.0020    -3.7340     1.1010 ho         1 1OR       0.438000
     36 H8           2.1060    -3.6490     3.6110 h2         1 1OR       0.105700
     37 H10          2.6020    -3.8280     6.0120 h5         1 1OR       0.076800
     38 H11          1.4710    -0.1600    10.7110 h1         1 1OR       0.057950
     39 H12          2.0930    -0.9870     9.2260 h1         1 1OR       0.057950
     40 H13          0.1480    -2.2080    11.3310 hc         1 1OR       0.051700
     41 H14          0.7470    -3.0600     9.8540 hc         1 1OR       0.051700
     42 H15          2.1130    -3.6480    11.8580 hc         1 1OR       0.035033
     43 H16          3.1190    -2.7650    10.6370 hc         1 1OR       0.035033
     44 H17          2.5270    -1.9030    12.1160 hc         1 1OR       0.035033
     45 H18         -0.9390    -0.1140    11.0160 h1         1 1OR       0.057950
     46 H19         -1.9070     0.3070     9.5350 h1         1 1OR       0.057950
     47 H20         -0.4640     2.3380     9.1620 hc         1 1OR       0.051700
     48 H21          0.5280     1.9170    10.6130 hc         1 1OR       0.051700
     49 H22         -1.2180     3.6050    11.1730 hc         1 1OR       0.035033
     50 H23         -1.5290     2.0570    12.0610 hc         1 1OR       0.035033
     51 H24         -2.5200     2.4800    10.6060 hc         1 1OR       0.035033
     52 H9          -1.6760     1.1010     5.3810 h5         1 1OR       0.056100
@<TRIPOS>BOND
     1     1     2 1   
     2     1     3 2   
     3     1     5 1   
     4     1     9 1   
     5     2    29 1   
     6     4     5 1   
     7     4     6 1   
     8     4    30 1   
     9     4    31 1   
    10     6     7 1   
    11     6     8 1   
    12     6    32 1   
    13     7    12 1   
    14     8     9 1   
    15     8    10 1   
    16     8    33 1   
    17    10    11 1   
    18    10    12 1   
    19    10    34 1   
    20    11    35 1   
    21    12    21 1   
    22    12    36 1   
    23    13    14 ar  
    24    13    18 ar  
    25    14    15 ar  
    26    14    52 1   
    27    15    16 ar  
    28    16    17 ar  
    29    16    21 1   
    30    17    18 ar  
    31    17    19 1   
    32    18    22 1   
    33    19    20 2   
    34    20    21 1   
    35    20    37 1   
    36    22    23 1   
    37    22    26 1   
    38    23    24 1   
    39    23    38 1   
    40    23    39 1   
    41    24    25 1   
    42    24    40 1   
    43    24    41 1   
    44    25    42 1   
    45    25    43 1   
    46    25    44 1   
    47    26    27 1   
    48    26    45 1   
    49    26    46 1   
    50    27    28 1   
    51    27    47 1   
    52    27    48 1   
    53    28    49 1   
    54    28    50 1   
    55    28    51 1   
@<TRIPOS>SUBSTRUCTURE
     1 1OR         1 TEMP              0 ****  ****    0 ROOT
