@<TRIPOS>MOLECULE
1OR
   52    55     1     0     0
SMALL
bcc


@<TRIPOS>ATOM
      1 P            0.0000     0.0000     0.0000 p5         1 1OR       1.236500
      2 O1P         -0.5510    -0.6780    -1.3520 oh         1 1OR      -0.606400
      3 O2P         -0.5060     1.3870     0.1140 o          1 1OR      -0.650300
      4 C5'          2.3530     0.0000     1.2510 c3         1 1OR       0.303400
      5 O5'          1.6230     0.0000     0.0000 os         1 1OR      -0.474200
      6 C4'          1.7610    -1.1080     2.1000 c3         1 1OR       0.060100
      7 O4'          2.3650    -1.3270     3.3720 os         1 1OR      -0.385600
      8 C3'          0.3060    -0.7280     2.4860 c3         1 1OR       0.193100
      9 O3'         -0.4730    -0.8750     1.2940 os         1 1OR      -0.438200
     10 C2'          0.0130    -1.7700     3.5730 c3         1 1OR       0.139100
     11 O2'         -0.5980    -2.9300     3.0040 oh         1 1OR      -0.554800
     12 C1'          1.4040    -2.1070     4.1260 c3         1 1OR       0.147800
     13 N1           0.4800    -3.5640     9.0250 nb         1 1OR      -0.702000
     14 C2           0.2540    -4.2320     7.9090 ca         1 1OR       0.667900
     15 N3           0.5380    -3.7400     6.7210 nb         1 1OR      -0.650000
     16 C4           1.0730    -2.5300     6.6000 ca         1 1OR       0.249800
     17 C5           1.3340    -1.7790     7.7580 ca         1 1OR      -0.197200
     18 C6           1.0130    -2.3470     9.0030 ca         1 1OR       0.590200
     19 N7           1.8730    -0.6020     7.3580 nc         1 1OR      -0.484100
     20 C8           1.9570    -0.5830     6.0600 cd         1 1OR       0.263700
     21 N9           1.4770    -1.7500     5.5450 na         1 1OR       0.191000
     22 N6           1.2460    -1.6550    10.1790 nh         1 1OR      -0.432300
     23 C26          0.8320    -2.4440    11.3460 c3         1 1OR       0.122300
     24 C27         -0.6930    -2.4150    11.4660 c3         1 1OR      -0.034900
     25 C28         -1.1160    -3.1290    12.7510 c3         1 1OR       0.009400
     26 C23          2.6560    -1.2580    10.2850 c3         1 1OR       0.122300
     27 C24          2.8030    -0.1740    11.3550 c3         1 1OR      -0.034900
     28 C25          4.2750     0.2200    11.4850 c3         1 1OR       0.009400
     29 H1          -0.8820    -0.0080    -1.9270 ho         1 1OR       0.457000
     30 H2           2.2310     0.9540     1.7500 h1         1 1OR       0.014200
     31 H3           3.4020    -0.1970     1.0660 h1         1 1OR       0.014200
     32 H4           1.7570    -2.0330     1.5370 h1         1 1OR       0.050700
     33 H5           0.2530     0.2810     2.8770 h1         1 1OR       0.038700
     34 H6          -0.6110    -1.3440     4.3490 h1         1 1OR       0.027700
     35 H7          -1.5050    -2.9670     3.2610 ho         1 1OR       0.405000
     36 H8           1.6050    -3.1630     3.9950 h2         1 1OR       0.071700
     37 H10          2.3500     0.2400     5.4740 h5         1 1OR       0.040800
     38 H11          1.2730    -2.0230    12.2410 h1         1 1OR       0.030700
     39 H12          1.1650    -3.4680    11.2260 h1         1 1OR       0.030700
     40 H13         -1.1330    -2.9170    10.6130 hc         1 1OR       0.023700
     41 H14         -1.0340    -1.3870    11.4950 hc         1 1OR       0.023700
     42 H15         -0.6380    -4.0990    12.7990 hc         1 1OR       0.000533
     43 H16         -0.8180    -2.5360    13.6080 hc         1 1OR       0.000533
     44 H17         -2.1920    -3.2550    12.7560 hc         1 1OR       0.000533
     45 H18          3.2540    -2.1190    10.5590 h1         1 1OR       0.030700
     46 H19          2.9960    -0.8720     9.3320 h1         1 1OR       0.030700
     47 H20          2.2200     0.6940    11.0710 hc         1 1OR       0.023700
     48 H21          2.4450    -0.5540    12.3050 hc         1 1OR       0.023700
     49 H22          4.6010     0.7050    10.5730 hc         1 1OR       0.000533
     50 H23          4.3940     0.9010    12.3190 hc         1 1OR       0.000533
     51 H24          4.8730    -0.6680    11.6550 hc         1 1OR       0.000533
     52 H9          -0.1830    -5.2210     7.9730 h5         1 1OR      -0.000900
@<TRIPOS>BOND
     1     1     2 1   
     2     1     3 2   
     3     1     5 1   
     4     1     9 1   
     5     2    29 1   
     6     4     5 1   
     7     4     6 1   
     8     4    30 1   
     9     4    31 1   
    10     6     7 1   
    11     6     8 1   
    12     6    32 1   
    13     7    12 1   
    14     8     9 1   
    15     8    10 1   
    16     8    33 1   
    17    10    11 1   
    18    10    12 1   
    19    10    34 1   
    20    11    35 1   
    21    12    21 1   
    22    12    36 1   
    23    13    14 ar  
    24    13    18 ar  
    25    14    15 ar  
    26    14    52 1   
    27    15    16 ar  
    28    16    17 ar  
    29    16    21 1   
    30    17    18 ar  
    31    17    19 1   
    32    18    22 1   
    33    19    20 2   
    34    20    21 1   
    35    20    37 1   
    36    22    23 1   
    37    22    26 1   
    38    23    24 1   
    39    23    38 1   
    40    23    39 1   
    41    24    25 1   
    42    24    40 1   
    43    24    41 1   
    44    25    42 1   
    45    25    43 1   
    46    25    44 1   
    47    26    27 1   
    48    26    45 1   
    49    26    46 1   
    50    27    28 1   
    51    27    47 1   
    52    27    48 1   
    53    28    49 1   
    54    28    50 1   
    55    28    51 1   
@<TRIPOS>SUBSTRUCTURE
     1 1OR         1 TEMP              0 ****  ****    0 ROOT
