@<TRIPOS>MOLECULE
1OS
   27    27     1     0     0
SMALL
bcc


@<TRIPOS>ATOM
      1 O1           0.0000     0.0000     0.0000 o          1 1OS      -0.633167
      2 P            1.4810     0.0000     0.0000 p5         1 1OS       0.331700
      3 O2           2.0170    -1.3140    -0.7590 o          1 1OS      -0.633167
      4 O3           2.0160     1.3160    -0.7590 o          1 1OS      -0.633167
      5 C6           2.0880     0.0000     1.7190 c3         1 1OS       0.001600
      6 N3           1.6990     1.2560     2.3750 nz         1 1OS       0.119400
      7 C5           1.4880    -1.1640     2.4630 ca         1 1OS       0.041700
      8 C7           0.2360    -1.0410     3.0390 ca         1 1OS      -0.083500
      9 C8          -0.3190    -2.1040     3.7230 ca         1 1OS      -0.056500
     10 C2           0.3840    -3.3040     3.8320 ca         1 1OS      -0.295900
     11 C1          -0.2060    -4.4470     4.5630 ce         1 1OS       0.241800
     12 N1           0.4920    -5.6310     4.6700 nz         1 1OS       0.190400
     13 N2          -1.3850    -4.3360     5.1060 n2         1 1OS      -0.579100
     14 C3           1.6460    -3.4210     3.2490 ca         1 1OS      -0.056500
     15 C4           2.1890    -2.3520     2.5640 ca         1 1OS      -0.083500
     16 H3           3.1680    -0.0890     1.7200 hx         1 1OS       0.088700
     17 H4           2.2790     2.0000     2.0420 hn         1 1OS       0.196800
     18 H5           0.7420     1.4590     2.1660 hn         1 1OS       0.196800
     19 H7          -0.3100    -0.1090     2.9540 ha         1 1OS       0.128000
     20 H8          -1.3000    -2.0070     4.1730 ha         1 1OS       0.083000
     21 H9           1.3600    -5.4660     5.1390 hn         1 1OS       0.215133
     22 H10         -0.0490    -6.2910     5.1920 hn         1 1OS       0.215133
     23 H11         -1.8930    -3.4770     5.0300 hn         1 1OS       0.381400
     24 H12          2.1960    -4.3500     3.3290 ha         1 1OS       0.083000
     25 H13          3.1690    -2.4420     2.1110 ha         1 1OS       0.128000
     26 H33          1.8830     1.1900     3.3570 hn         1 1OS       0.196800
     27 H131         0.6890    -5.9860     3.7550 hn         1 1OS       0.215133
@<TRIPOS>BOND
     1     1     2 1   
     2     2     3 1   
     3     2     4 1   
     4     2     5 1   
     5     5     6 1   
     6     5     7 1   
     7     5    16 1   
     8     6    17 1   
     9     6    18 1   
    10     6    26 1   
    11     7     8 ar  
    12     7    15 ar  
    13     8     9 ar  
    14     8    19 1   
    15     9    10 ar  
    16     9    20 1   
    17    10    11 1   
    18    10    14 ar  
    19    11    12 1   
    20    11    13 2   
    21    12    21 1   
    22    12    22 1   
    23    12    27 1   
    24    13    23 1   
    25    14    15 ar  
    26    14    24 1   
    27    15    25 1   
@<TRIPOS>SUBSTRUCTURE
     1 1OS         1 TEMP              0 ****  ****    0 ROOT
