@<TRIPOS>MOLECULE
molecule
   27    27     1     0     0
SMALL
bcc


@<TRIPOS>ATOM
      1 O1           0.0000     0.0000     0.0000 o          1 1OS      -0.790833
      2 P            1.6130     0.0000     0.0000 p5         1 1OS       1.040700
      3 O2           1.5940    -1.5220    -0.7620 o          1 1OS      -0.790833
      4 O3           1.9010     1.3930    -0.7540 o          1 1OS      -0.790833
      5 C6           1.6800     0.0000     1.7680 c3         1 1OS       0.144600
      6 N3           1.3840    -1.4100     2.1000 nz         1 1OS      -0.810600
      7 C5           3.0110     0.3080     2.3200 ca         1 1OS       0.127700
      8 C7           3.3660     1.5270     2.8680 ca         1 1OS      -0.221500
      9 C8           4.6590     1.5920     3.4170 ca         1 1OS      -0.022500
     10 C2           5.5400     0.4830     3.4400 ca         1 1OS      -0.395900
     11 C1           6.9750     0.4860     3.9760 ce         1 1OS       0.697800
     12 N1           7.3910    -0.2960     4.8930 nz         1 1OS      -0.919600
     13 N2           7.8730     1.2970     3.3990 n2         1 1OS      -0.776100
     14 C3           5.1370    -0.7120     2.9060 ca         1 1OS      -0.022500
     15 C4           3.8720    -0.7900     2.3470 ca         1 1OS      -0.221500
     16 H3           0.9260     0.6590     2.1830 hx         1 1OS       0.158700
     17 H4           1.8050    -1.6410     2.9790 hn         1 1OS       0.458800
     18 H5           1.7530    -2.0060     1.3860 hn         1 1OS       0.458800
     19 H7           2.7000     2.3810     2.8550 ha         1 1OS       0.136500
     20 H8           4.9870     2.5250     3.8590 ha         1 1OS       0.111000
     21 H9           7.9480    -1.0220     4.4860 hn         1 1OS       0.432133
     22 H10          6.6090    -0.7020     5.3670 hn         1 1OS       0.432133
     23 H11          8.8240     1.2950     3.7110 hn         1 1OS       0.425400
     24 H12          5.7940    -1.5740     2.9160 ha         1 1OS       0.111000
     25 H13          3.5420    -1.7300     1.9210 ha         1 1OS       0.136500
     26 H33          0.3950    -1.5290     2.1980 hn         1 1OS       0.458800
     27 H131         7.9530     0.2190     5.5420 hn         1 1OS       0.432133
@<TRIPOS>BOND
     1     1     2 1   
     2     3     2 1   
     3     4     2 1   
     4     2     5 1   
     5     6     5 1   
     6     5     7 1   
     7     7    15 ar  
     8     7     8 ar  
     9    15    14 ar  
    10     8     9 ar  
    11    14    10 ar  
    12     9    10 ar  
    13    10    11 1   
    14    11    13 2   
    15    11    12 1   
    16     5    16 1   
    17     6    17 1   
    18     6    18 1   
    19     8    19 1   
    20     9    20 1   
    21    12    21 1   
    22    12    22 1   
    23    13    23 1   
    24    14    24 1   
    25    15    25 1   
    26    26     6 1   
    27    27    12 1   
@<TRIPOS>SUBSTRUCTURE
     1 1OS         1 TEMP              0 ****  ****    0 ROOT
