@<TRIPOS>MOLECULE
molecule
   27    27     1     0     0
SMALL
bcc


@<TRIPOS>ATOM
      1 O1           0.0000     0.0000     0.0000 o          1 1OS      -0.791500
      2 P            1.4810     0.0000     0.0000 p5         1 1OS       0.799700
      3 O2           2.0170    -1.3140    -0.7590 o          1 1OS      -0.791500
      4 O3           2.0160     1.3160    -0.7590 o          1 1OS      -0.791500
      5 C6           2.0880     0.0000     1.7190 c3         1 1OS       0.068600
      6 N3           1.6990     1.2560     2.3750 nz         1 1OS      -0.774600
      7 C5           1.4880    -1.1640     2.4630 ca         1 1OS       0.015700
      8 C7           0.2360    -1.0410     3.0390 ca         1 1OS      -0.102500
      9 C8          -0.3190    -2.1040     3.7230 ca         1 1OS      -0.075000
     10 C2           0.3840    -3.3040     3.8320 ca         1 1OS      -0.228900
     11 C1          -0.2060    -4.4470     4.5630 ce         1 1OS       0.558800
     12 N1           0.4920    -5.6310     4.6700 nz         1 1OS      -0.801600
     13 N2          -1.3850    -4.3360     5.1060 n2         1 1OS      -0.714100
     14 C3           1.6460    -3.4210     3.2490 ca         1 1OS      -0.075000
     15 C4           2.1890    -2.3520     2.5640 ca         1 1OS      -0.102500
     16 H3           3.1680    -0.0890     1.7200 hx         1 1OS       0.111700
     17 H4           1.8110     1.1630     3.3660 hn         1 1OS       0.438800
     18 H5           0.7420     1.4590     2.1660 hn         1 1OS       0.438800
     19 H7          -0.3100    -0.1090     2.9540 ha         1 1OS       0.164500
     20 H8          -1.3000    -2.0070     4.1730 ha         1 1OS       0.127500
     21 H9           1.3600    -5.4660     5.1390 hn         1 1OS       0.459800
     22 H10         -0.0490    -6.2910     5.1930 hn         1 1OS       0.459800
     23 H11         -1.7840    -5.1090     5.6000 hn         1 1OS       0.416400
     24 H12          2.1960    -4.3500     3.3290 ha         1 1OS       0.127500
     25 H13          3.1690    -2.4420     2.1110 ha         1 1OS       0.164500
     26 H33          2.2270     2.0120     1.9880 hn         1 1OS       0.438800
     27 H131         0.6630    -6.0020     3.7560 hn         1 1OS       0.459800
@<TRIPOS>BOND
     1     1     2 1   
     2     3     2 1   
     3     4     2 1   
     4     2     5 1   
     5     6     5 1   
     6     5     7 1   
     7     7    15 ar  
     8     7     8 ar  
     9    15    14 ar  
    10     8     9 ar  
    11    14    10 ar  
    12     9    10 ar  
    13    10    11 1   
    14    11    13 2   
    15    11    12 1   
    16     5    16 1   
    17     6    17 1   
    18     6    18 1   
    19     8    19 1   
    20     9    20 1   
    21    12    21 1   
    22    12    22 1   
    23    13    23 1   
    24    14    24 1   
    25    15    25 1   
    26    26     6 1   
    27    27    12 1   
@<TRIPOS>SUBSTRUCTURE
     1 1OS         1 TEMP              0 ****  ****    0 ROOT
