@<TRIPOS>MOLECULE
1OT
   28    28     1     0     0
SMALL
bcc


@<TRIPOS>ATOM
      1 O1          0.2810   -0.2650   -0.6900 o         1 1OT     -0.819167
      2 P           1.7140   -0.4970   -0.4880 p4        1 1OT      1.544300
      3 O2          2.2320   -1.8260   -0.0580 o         1 1OT     -0.819167
      4 O3          2.7690    0.4250   -0.9820 o         1 1OT     -0.867967
      5 C1          2.2190    0.1440    1.8770 c2        1 1OT     -0.563000
      6 N1          3.5710   -0.1370    1.4820 n4        1 1OT     -0.697400
      7 C2          1.8750    1.3620    2.5070 cc        1 1OT      0.130000
      8 C10         0.5650    1.5180    3.0340 cc        1 1OT     -0.217000
      9 C9          0.1750    2.6800    3.6680 cd        1 1OT     -0.159600
     10 C5          1.0850    3.7530    3.8080 cd        1 1OT      0.149900
     11 C4          2.3830    3.6210    3.2830 cd        1 1OT     -0.159600
     12 C3          2.7650    2.4530    2.6420 cc        1 1OT     -0.217000
     13 N2          0.6980    4.9650    4.4580 na        1 1OT      0.108400
     14 N3         -0.0660    5.0300    5.5570 nc        1 1OT     -0.514800
     15 C8         -0.2010    6.3510    5.8620 cd        1 1OT      0.265200
     16 C7          0.5140    7.1620    4.9100 cd        1 1OT     -0.325300
     17 C6          1.0810    6.2380    4.0160 cc        1 1OT     -0.153300
     18 H3          1.5950   -0.7490    2.0370 hx        1 1OT      0.172000
     19 H4          3.8110    0.4890    0.6840 hn        1 1OT      0.434800
     20 H5          4.2370   -0.0070    2.2390 hn        1 1OT      0.434800
     21 H7         -0.1530    0.6950    2.9080 ha        1 1OT      0.122000
     22 H8         -0.8470    2.7670    4.0670 ha        1 1OT      0.122500
     23 H9          3.1060    4.4470    3.3740 ha        1 1OT      0.122500
     24 H10         3.7750    2.4030    2.2140 ha        1 1OT      0.122000
     25 H11        -0.7840    6.6820    6.7180 h4        1 1OT      0.026100
     26 H12         0.5910    8.2410    4.8920 ha        1 1OT      0.149000
     27 H13         1.6930    6.3770    3.1270 h4        1 1OT      0.174000
     28 H131        3.5950   -1.1170    1.1280 hn        1 1OT      0.434800
@<TRIPOS>BOND
     1    1    2 1   
     2    2    3 1   
     3    2    4 2   
     4    5    6 1   
     5    5    7 2   
     6    5   18 1   
     7    6   19 1   
     8    6   20 1   
     9    6   28 1   
    10    7    8 1   
    11    7   12 1   
    12    8    9 2   
    13    8   21 1   
    14    9   10 1   
    15    9   22 1   
    16   10   11 1   
    17   10   13 2   
    18   11   12 2   
    19   11   23 1   
    20   12   24 1   
    21   13   14 1   
    22   13   17 1   
    23   14   15 2   
    24   15   16 1   
    25   15   25 1   
    26   16   17 2   
    27   16   26 1   
    28   17   27 1   
@<TRIPOS>SUBSTRUCTURE
     1 1OT         1 TEMP              0 ****  ****    0 ROOT
