@<TRIPOS>MOLECULE
molecule
   28    29     1     0     0
SMALL
bcc


@<TRIPOS>ATOM
      1 O1           0.0000     0.0000     0.0000 o          1 1OT      -0.819167
      2 P            1.5760     0.0000     0.0000 p5         1 1OT       1.087700
      3 O2           2.4890    -1.0220    -0.8540 o          1 1OT      -0.819167
      4 O3           1.8610     1.5180    -0.4730 o          1 1OT      -0.819167
      5 C1           2.2050     0.0000     1.6600 c3         1 1OT      -0.032400
      6 N1           1.0790     0.5240     2.4890 nz         1 1OT      -0.773600
      7 C2           2.6140    -1.3290     2.1800 ca         1 1OT       0.122700
      8 C10          1.5820    -2.0980     2.6480 ca         1 1OT      -0.217000
      9 C9           1.7910    -3.3080     3.2720 ca         1 1OT      -0.073000
     10 C5           3.0270    -3.8760     3.4460 ca         1 1OT      -0.123200
     11 C4           4.0770    -3.0480     2.9770 ca         1 1OT      -0.073000
     12 C3           3.9130    -1.7980     2.3710 ca         1 1OT      -0.217000
     13 N2           3.0680    -5.0920     4.0930 na         1 1OT       0.208300
     14 N3           4.2320    -5.7240     4.5560 nc         1 1OT      -0.514800
     15 C8           3.7590    -6.8140     5.2200 cd         1 1OT       0.265200
     16 C7           2.3550    -6.8320     5.1940 cd         1 1OT      -0.325300
     17 C6           1.9460    -5.7060     4.5070 cc         1 1OT      -0.153300
     18 H3           3.0440     0.6820     1.7240 hx         1 1OT       0.132700
     19 H4           0.2320     0.0560     2.2360 hn         1 1OT       0.434800
     20 H5           0.9780     1.5070     2.3300 hn         1 1OT       0.434800
     21 H7           0.5670    -1.7440     2.5210 ha         1 1OT       0.122000
     22 H8           0.9280    -3.8420     3.6470 ha         1 1OT       0.122500
     23 H9           5.0890    -3.4140     3.0960 ha         1 1OT       0.122500
     24 H10          4.7380    -1.3450     1.8340 ha         1 1OT       0.122000
     25 H11          4.3780    -7.5600     5.7040 h4         1 1OT       0.026100
     26 H12          1.7160    -7.5020     5.7570 ha         1 1OT       0.149000
     27 H13          0.9420    -5.5070     4.1500 h4         1 1OT       0.174000
     28 H131         1.2660     0.3450     3.4560 hn         1 1OT       0.434800
@<TRIPOS>BOND
     1     4     2 1   
     2     1     2 1   
     3     2     3 1   
     4     2     5 1   
     5     6     5 1   
     6     5     7 1   
     7     7     8 ar  
     8     7    12 ar  
     9     8     9 ar  
    10    12    11 ar  
    11     9    10 ar  
    12    11    10 ar  
    13    10    13 1   
    14    13    17 1   
    15    13    14 1   
    16    17    16 2   
    17    14    15 2   
    18    16    15 1   
    19     5    18 1   
    20     6    19 1   
    21     6    20 1   
    22     8    21 1   
    23     9    22 1   
    24    11    23 1   
    25    12    24 1   
    26    15    25 1   
    27    16    26 1   
    28    17    27 1   
    29    28     6 1   
@<TRIPOS>SUBSTRUCTURE
     1 1OT         1 TEMP              0 ****  ****    0 ROOT
