@<TRIPOS>MOLECULE
molecule
   29    29     1     0     0
SMALL
bcc


@<TRIPOS>ATOM
      1 O1           0.0000     0.0000     0.0000 o          1 1OU      -0.806500
      2 P            1.4800     0.0000     0.0000 p5         1 1OU       0.827700
      3 O2           2.0170    -1.3150    -0.7590 o          1 1OU      -0.806500
      4 O3           2.0170     1.3140    -0.7600 o          1 1OU      -0.806500
      5 C6           2.0880     0.0000     1.7190 c3         1 1OU       0.060600
      6 N4           1.7000     1.2550     2.3750 nz         1 1OU      -0.768600
      7 C5           1.4870    -1.1630     2.4640 ca         1 1OU      -0.023300
      8 C7           2.1860    -2.3530     2.5660 ca         1 1OU      -0.086500
      9 C8           1.6380    -3.4210     3.2490 ca         1 1OU      -0.114000
     10 C2           0.3840    -3.3000     3.8320 ca         1 1OU       0.074600
     11 C3          -0.3140    -2.1050     3.7290 ca         1 1OU      -0.114000
     12 C4           0.2410    -1.0380     3.0500 ca         1 1OU      -0.086500
     13 N3          -0.1730    -4.3800     4.5240 nu         1 1OU      -0.685600
     14 C1           0.6400    -5.2490     5.2170 c2         1 1OU       0.673100
     15 N1           1.9160    -5.0040     5.3200 n2         1 1OU      -0.774100
     16 N2           0.1060    -6.3730     5.8000 nz         1 1OU      -0.806600
     17 H3           3.1680    -0.0890     1.7200 hx         1 1OU       0.105700
     18 H4           0.7400     1.4530     2.1750 hn         1 1OU       0.432800
     19 H5           1.8240     1.1660     3.3640 hn         1 1OU       0.432800
     20 H7           3.1660    -2.4440     2.1150 ha         1 1OU       0.156000
     21 H8           2.1540    -4.3740     3.2660 ha         1 1OU       0.131500
     22 H9          -1.3100    -2.0210     4.1490 ha         1 1OU       0.131500
     23 H10         -0.3040    -0.1050     2.9700 ha         1 1OU       0.156000
     24 H11         -1.1610    -4.5400     4.4900 hn         1 1OU       0.455800
     25 H12          2.5080    -5.6350     5.8230 hn         1 1OU       0.423400
     26 H13         -0.7220    -6.6440     5.3080 hn         1 1OU       0.461133
     27 H14          0.7740    -7.1170     5.7640 hn         1 1OU       0.461133
     28 H43          2.2660     2.0030     2.0260 hn         1 1OU       0.432800
     29 H23         -0.1220    -6.1770     6.7550 hn         1 1OU       0.461133
@<TRIPOS>BOND
     1     1     2 1   
     2     3     2 1   
     3     2     5 1   
     4     2     4 1   
     5     6     5 1   
     6     5     7 1   
     7     7     8 ar  
     8     7    12 ar  
     9     8     9 ar  
    10    12    11 ar  
    11     9    10 ar  
    12    11    10 ar  
    13    10    13 1   
    14    15    14 2   
    15    13    14 1   
    16    14    16 1   
    17     5    17 1   
    18     6    18 1   
    19     6    19 1   
    20     8    20 1   
    21     9    21 1   
    22    11    22 1   
    23    12    23 1   
    24    13    24 1   
    25    15    25 1   
    26    16    26 1   
    27    16    27 1   
    28    28     6 1   
    29    29    16 1   
@<TRIPOS>SUBSTRUCTURE
     1 1OU         1 TEMP              0 ****  ****    0 ROOT
