@<TRIPOS>MOLECULE
molecule
   29    29     1     0     0
SMALL
bcc


@<TRIPOS>ATOM
      1 O1           0.0000     0.0000     0.0000 o          1 1OU      -0.829167
      2 P            1.4760     0.0000     0.0000 p5         1 1OU       1.121700
      3 O2           1.8400    -1.3880    -0.7830 o          1 1OU      -0.829167
      4 O3           2.0840     1.3550    -0.6870 o          1 1OU      -0.829167
      5 C6           1.9860     0.0000     1.7250 c3         1 1OU       0.006600
      6 N4           2.0620    -1.4380     2.0280 nz         1 1OU      -0.769600
      7 C5           3.2680     0.7710     1.8470 ca         1 1OU       0.117700
      8 C7           4.4660     0.1100     1.6400 ca         1 1OU      -0.229000
      9 C8           5.7110     0.7410     1.7880 ca         1 1OU      -0.064500
     10 C2           5.7850     2.1040     2.0890 ca         1 1OU      -0.161400
     11 C3           4.5730     2.7620     2.3240 ca         1 1OU      -0.064500
     12 C4           3.3240     2.1320     2.1880 ca         1 1OU      -0.229000
     13 N3           7.0280     2.7370     2.1940 nu         1 1OU      -0.613600
     14 C1           7.8960     2.8960     1.1700 c2         1 1OU       0.717100
     15 N1           7.4970     2.7200    -0.0450 n2         1 1OU      -0.801100
     16 N2           9.2070     3.2190     1.4220 nz         1 1OU      -0.857600
     17 H3           1.2190     0.4630     2.3340 hx         1 1OU       0.140700
     18 H4           2.6240    -1.8950     1.3370 hn         1 1OU       0.445800
     19 H5           1.1410    -1.8290     2.0220 hn         1 1OU       0.445800
     20 H7           4.4430    -0.9480     1.4060 ha         1 1OU       0.134500
     21 H8           6.6210     0.1810     1.6070 ha         1 1OU       0.131000
     22 H9           4.5960     3.8160     2.5740 ha         1 1OU       0.131000
     23 H10          2.4110     2.6840     2.3810 ha         1 1OU       0.134500
     24 H11          7.2930     3.0980     3.0890 hn         1 1OU       0.434800
     25 H12          8.1400     2.8280    -0.8040 hn         1 1OU       0.426400
     26 H13          9.4630     2.8910     2.3320 hn         1 1OU       0.481467
     27 H14          9.3190     4.2130     1.3830 hn         1 1OU       0.481467
     28 H43          2.4710    -1.5670     2.9320 hn         1 1OU       0.445800
     29 H23          9.7960     2.7820     0.7420 hn         1 1OU       0.481467
@<TRIPOS>BOND
     1     1     2 1   
     2     3     2 1   
     3     2     5 1   
     4     2     4 1   
     5     6     5 1   
     6     5     7 1   
     7     7     8 ar  
     8     7    12 ar  
     9     8     9 ar  
    10    12    11 ar  
    11     9    10 ar  
    12    11    10 ar  
    13    10    13 1   
    14    15    14 2   
    15    13    14 1   
    16    14    16 1   
    17     5    17 1   
    18     6    18 1   
    19     6    19 1   
    20     8    20 1   
    21     9    21 1   
    22    11    22 1   
    23    12    23 1   
    24    13    24 1   
    25    15    25 1   
    26    16    26 1   
    27    16    27 1   
    28    28     6 1   
    29    29    16 1   
@<TRIPOS>SUBSTRUCTURE
     1 1OU         1 TEMP              0 ****  ****    0 ROOT
