@<TRIPOS>MOLECULE
1OU
   29    29     1     0     0
SMALL
bcc


@<TRIPOS>ATOM
      1 O1           0.0000     0.0000     0.0000 o          1 1OU      -0.645500
      2 P            1.4800     0.0000     0.0000 p5         1 1OU       0.334700
      3 O2           2.0170    -1.3150    -0.7590 o          1 1OU      -0.645500
      4 O3           2.0170     1.3140    -0.7600 o          1 1OU      -0.645500
      5 C6           2.0880     0.0000     1.7190 c3         1 1OU      -0.011400
      6 N4           1.7000     1.2550     2.3750 nz         1 1OU       0.117400
      7 C5           1.4870    -1.1630     2.4640 ca         1 1OU       0.021700
      8 C7           2.1860    -2.3530     2.5660 ca         1 1OU      -0.063500
      9 C8           1.6380    -3.4210     3.2490 ca         1 1OU      -0.111000
     10 C2           0.3840    -3.3000     3.8320 ca         1 1OU      -0.125400
     11 C3          -0.3140    -2.1050     3.7290 ca         1 1OU      -0.111000
     12 C4           0.2410    -1.0380     3.0500 ca         1 1OU      -0.063500
     13 N3          -0.1730    -4.3800     4.5240 nu         1 1OU      -0.235600
     14 C1           0.6400    -5.2490     5.2170 c2         1 1OU       0.210100
     15 N1           1.9160    -5.0040     5.3200 n2         1 1OU      -0.700100
     16 N2           0.1060    -6.3730     5.8000 nz         1 1OU       0.199400
     17 H3           3.1680    -0.0890     1.7200 hx         1 1OU       0.084700
     18 H4           1.8170     1.1640     3.3650 hn         1 1OU       0.193133
     19 H5           0.7420     1.4570     2.1690 hn         1 1OU       0.193133
     20 H7           3.1660    -2.4450     2.1140 ha         1 1OU       0.126000
     21 H8           2.1480    -4.3770     3.2550 ha         1 1OU       0.106500
     22 H9          -1.3110    -2.0220     4.1460 ha         1 1OU       0.106500
     23 H10         -0.3030    -0.1050     2.9720 ha         1 1OU       0.126000
     24 H11         -1.1610    -4.5400     4.4890 hn         1 1OU       0.280800
     25 H12          2.3070    -4.1860     4.8960 hn         1 1OU       0.424400
     26 H13         -0.3910    -6.9030     5.1120 hn         1 1OU       0.213800
     27 H14          0.8420    -6.9320     6.1840 hn         1 1OU       0.213800
     28 H43          2.2690     2.0020     2.0290 hn         1 1OU       0.193133
     29 H23         -0.5230    -6.1030     6.5310 hn         1 1OU       0.213800
@<TRIPOS>BOND
     1     1     2 1   
     2     2     3 1   
     3     2     4 1   
     4     2     5 1   
     5     5     6 1   
     6     5     7 1   
     7     5    17 1   
     8     6    18 1   
     9     6    19 1   
    10     6    28 1   
    11     7     8 ar  
    12     7    12 ar  
    13     8     9 ar  
    14     8    20 1   
    15     9    10 ar  
    16     9    21 1   
    17    10    11 ar  
    18    10    13 1   
    19    11    12 ar  
    20    11    22 1   
    21    12    23 1   
    22    13    14 1   
    23    13    24 1   
    24    14    15 2   
    25    14    16 1   
    26    15    25 1   
    27    16    26 1   
    28    16    27 1   
    29    16    29 1   
@<TRIPOS>SUBSTRUCTURE
     1 1OU         1 TEMP              0 ****  ****    0 ROOT
