@<TRIPOS>MOLECULE
molecule
   28    27     1     0     0
SMALL
bcc


@<TRIPOS>ATOM
      1 N1           0.0000     0.0000     0.0000 n2         1 1OV      -0.859100
      2 C1           1.3040     0.0000     0.0000 c2         1 1OV       0.669100
      3 N2           1.9910     0.0000     1.1910 nz         1 1OV      -0.742600
      4 N3           1.9920    -0.0000    -1.1900 nu         1 1OV      -0.882200
      5 C2           1.2590    -0.0000    -2.4600 c3         1 1OV       0.225800
      6 C3           2.2540    -0.0000    -3.6220 c3         1 1OV      -0.116400
      7 C4           1.4890    -0.0000    -4.9470 c3         1 1OV      -0.060400
      8 C5           2.4840    -0.0010    -6.1100 c3         1 1OV      -0.011700
      9 N4           1.7500    -0.0010    -7.3820 nz         1 1OV      -0.766600
     10 P            3.5320    -1.4890    -6.0130 p5         1 1OV       0.886700
     11 O1           4.4340    -1.4250    -4.6810 o          1 1OV      -0.825167
     12 O3           4.4880    -1.5570    -7.3060 o          1 1OV      -0.825167
     13 O2           2.6740    -2.6940    -5.9700 o          1 1OV      -0.825167
     14 H1          -0.5020    -0.0000    -0.8660 hn         1 1OV       0.475400
     15 H2           1.3400    -0.0080     1.9510 hn         1 1OV       0.474133
     16 H3           2.5720    -0.8130     1.2410 hn         1 1OV       0.474133
     17 H4           2.9920     0.0170    -1.1900 hn         1 1OV       0.462800
     18 H5           0.6360    -0.8850    -2.5170 h1         1 1OV       0.046200
     19 H6           0.6360     0.8840    -2.5170 h1         1 1OV       0.046200
     20 H7           2.8770    -0.8840    -3.5650 hc         1 1OV       0.113700
     21 H8           2.8760     0.8850    -3.5650 hc         1 1OV       0.113700
     22 H9           0.8660    -0.8850    -5.0040 hc         1 1OV       0.030200
     23 H10          0.8660     0.8840    -5.0040 hc         1 1OV       0.030200
     24 H11          3.1060     0.8840    -6.0530 hx         1 1OV       0.092700
     25 H12          1.1970    -0.8330    -7.4490 hn         1 1OV       0.432133
     26 H13          1.1520     0.8010    -7.4230 hn         1 1OV       0.432133
     27 H23          2.5420     0.8320     1.2580 hn         1 1OV       0.474133
     28 H43          2.4000    -0.0030    -8.1430 hn         1 1OV       0.432133
@<TRIPOS>BOND
     1    11    10 1
     2    13    10 1
     3    10    12 1
     4    10     8 1
     5     9     8 1
     6     8     7 1
     7     7     6 1
     8     6     5 1
     9     5     4 1
    10     4     2 1
    11     1     2 2
    12     2     3 1
    13     1    14 1
    14     3    15 1
    15     3    16 1
    16     4    17 1
    17     5    18 1
    18     5    19 1
    19     6    20 1
    20     6    21 1
    21     7    22 1
    22     7    23 1
    23     8    24 1
    24     9    25 1
    25     9    26 1
    26    27     3 1
    27    28     9 1
@<TRIPOS>SUBSTRUCTURE
     1 1OV         1 TEMP              0 ****  ****    0 ROOT
