@<TRIPOS>MOLECULE
1OV
   28    27     1     0     0
SMALL
bcc


@<TRIPOS>ATOM
      1 N1           0.0000     0.0000     0.0000 n2         1 1OV      -0.671100
      2 C1           1.3040     0.0000     0.0000 c2         1 1OV       0.249100
      3 N2           1.9910     0.0000     1.1910 nz         1 1OV       0.114400
      4 N3           1.9920    -0.0000    -1.1900 nu         1 1OV      -0.355200
      5 C2           1.2590    -0.0000    -2.4600 c3         1 1OV       0.158800
      6 C3           2.2540    -0.0000    -3.6220 c3         1 1OV      -0.105400
      7 C4           1.4890    -0.0000    -4.9470 c3         1 1OV       0.044600
      8 C5           2.4840    -0.0010    -6.1100 c3         1 1OV      -0.117700
      9 N4           1.7500    -0.0010    -7.3820 nz         1 1OV       0.135400
     10 P            3.5320    -1.4890    -6.0130 p5         1 1OV       0.399700
     11 O1           4.4340    -1.4250    -4.6810 o          1 1OV      -0.670500
     12 O3           4.4880    -1.5570    -7.3060 o          1 1OV      -0.670500
     13 O2           2.6740    -2.6940    -5.9700 o          1 1OV      -0.670500
     14 H1          -0.5010     0.0000     0.8660 hn         1 1OV       0.334400
     15 H2           2.2530    -0.9370     1.4250 hn         1 1OV       0.221800
     16 H3           1.4060     0.3730     1.9130 hn         1 1OV       0.221800
     17 H4           2.9920     0.0150    -1.1900 hn         1 1OV       0.310800
     18 H5           0.6360     0.8840    -2.5170 h1         1 1OV       0.032200
     19 H6           0.6360    -0.8850    -2.5170 h1         1 1OV       0.032200
     20 H7           2.8760     0.8850    -3.5650 hc         1 1OV       0.084200
     21 H8           2.8770    -0.8850    -3.5650 hc         1 1OV       0.084200
     22 H9           0.8660     0.8840    -5.0040 hc         1 1OV      -0.006800
     23 H10          0.8660    -0.8850    -5.0040 hc         1 1OV      -0.006800
     24 H11          3.1060     0.8840    -6.0530 hx         1 1OV       0.072700
     25 H12          2.4000     0.0300    -8.1430 hn         1 1OV       0.185800
     26 H13          1.1970    -0.8330    -7.4490 hn         1 1OV       0.185800
     27 H23          2.8250     0.5450     1.0960 hn         1 1OV       0.221800
     28 H43          1.1660     0.8110    -7.4310 hn         1 1OV       0.185800
@<TRIPOS>BOND
     1     1     2 2   
     2     1    14 1   
     3     2     3 1   
     4     2     4 1   
     5     3    15 1   
     6     3    16 1   
     7     3    27 1   
     8     4     5 1   
     9     4    17 1   
    10     5     6 1   
    11     5    18 1   
    12     5    19 1   
    13     6     7 1   
    14     6    20 1   
    15     6    21 1   
    16     7     8 1   
    17     7    22 1   
    18     7    23 1   
    19     8     9 1   
    20     8    10 1   
    21     8    24 1   
    22     9    25 1   
    23     9    26 1   
    24     9    28 1   
    25    10    11 1   
    26    10    12 1   
    27    10    13 1   
@<TRIPOS>SUBSTRUCTURE
     1 1OV         1 TEMP              0 ****  ****    0 ROOT
