@<TRIPOS>MOLECULE
molecule
   33    36     1     0     0
SMALL
bcc


@<TRIPOS>ATOM
      1 C1           0.0000     0.0000     0.0000 ca         1 1OX      -0.147000
      2 C2           1.3870     0.0000     0.0000 ca         1 1OX      -0.120000
      3 C3          -0.6980     0.0000     1.1760 ca         1 1OX      -0.072000
      4 C4           2.0860     0.0000     1.1900 ca         1 1OX      -0.117000
      5 C5           0.6370    -0.0150     4.4670 cc         1 1OX       0.430700
      6 C6          -0.0110    -0.0060     2.3920 ca         1 1OX       0.089400
      7 C7           1.3940    -0.0000     2.3930 ca         1 1OX      -0.085200
      8 C8           5.6320     5.0700     2.0740 cd         1 1OX      -0.060000
      9 C9           5.1740     3.7870     2.0550 cc         1 1OX      -0.151000
     10 C10          5.5590     5.8120     3.2600 cd         1 1OX      -0.198000
     11 C11          3.5760     2.1310     5.4660 cc         1 1OX      -0.345200
     12 C12          5.0360     5.2580     4.3780 cc         1 1OX      -0.030300
     13 C13          3.6620     1.4140     4.2890 cd         1 1OX       0.188400
     14 C14          4.6290     3.2290     3.2260 cc         1 1OX       0.142700
     15 C15          4.0590     3.4440     5.4970 c          1 1OX       0.572500
     16 N17         -0.4070    -0.0080     3.6910 nd         1 1OX      -0.600100
     17 N18          4.1820     1.9750     3.2090 nd         1 1OX      -0.385600
     18 N19          1.7740    -0.0010     3.7200 na         1 1OX      -0.158300
     19 N20          4.5760     3.9760     4.3680 n          1 1OX      -0.038200
     20 O21          4.0010     4.1030     6.5230 o          1 1OX      -0.636500
     21 H1          -0.5360    -0.0000    -0.9410 ha         1 1OX       0.131000
     22 H2           1.9250    -0.0000    -0.9400 ha         1 1OX       0.130000
     23 H3          -1.7810     0.0000     1.1640 ha         1 1OX       0.141000
     24 H4           3.1690    -0.0000     1.1840 ha         1 1OX       0.136000
     25 H5           0.6050    -0.0290     5.5500 h5         1 1OX       0.073800
     26 H7           5.2250     3.2020     1.1440 ha         1 1OX       0.174000
     27 H8           5.9220     6.8330     3.2820 ha         1 1OX       0.158000
     28 H9           3.3180     1.6270     6.3900 ha         1 1OX       0.167000
     29 H11          4.9840     5.8400     5.2910 h4         1 1OX       0.197000
     30 C16          3.1480    -0.0010     4.2300 c3         1 1OX       0.107500
     31 H6           6.0510     5.5130     1.1790 ha         1 1OX       0.150000
     32 H12          3.1640    -0.4330     5.2240 h1         1 1OX       0.077700
     33 H13          3.7770    -0.5870     3.5720 h1         1 1OX       0.077700
@<TRIPOS>BOND
     1    12    10 2
     2    12    19 1
     3    10     8 1
     4    20    15 2
     5    15    19 1
     6    15    11 1
     7    19    14 1
     8     8     9 2
     9    11    13 2
    10    14     9 1
    11    14    17 2
    12    13    17 1
    13    13    30 1
    14    30    18 1
    15     4     7 ar
    16     4     2 ar
    17    18     7 1
    18    18     5 1
    19     7     6 ar
    20     2     1 ar
    21     5    16 2
    22     6    16 1
    23     6     3 ar
    24     1     3 ar
    25     1    21 1
    26     2    22 1
    27     3    23 1
    28     4    24 1
    29     5    25 1
    30     8    31 1
    31     9    26 1
    32    10    27 1
    33    11    28 1
    34    12    29 1
    35    30    32 1
    36    30    33 1
@<TRIPOS>SUBSTRUCTURE
     1 1OX         1 TEMP              0 ****  ****    0 ROOT
