@<TRIPOS>MOLECULE
1OX
   33    36     1     0     0
SMALL
bcc


@<TRIPOS>ATOM
      1 C1          -0.5250    -0.5760     0.0770 ca         1 1OX      -0.153000
      2 C2           0.8580    -0.7230    -0.1190 ca         1 1OX      -0.114000
      3 C3          -1.0540    -0.2200     1.3110 ca         1 1OX      -0.070000
      4 C4           1.7690    -0.5190     0.9100 ca         1 1OX      -0.134000
      5 C5           0.8020     0.4310     4.2870 cc         1 1OX       0.448700
      6 C6          -0.1710     0.0010     2.3730 ca         1 1OX       0.069400
      7 C7           1.2590    -0.1550     2.1590 ca         1 1OX      -0.072200
      8 C8           3.2560     6.0350     5.6400 cc         1 1OX      -0.059000
      9 C9           2.8300     4.7490     5.5270 cd         1 1OX      -0.158000
     10 C10          4.4020     6.4790     4.9140 cc         1 1OX      -0.204000
     11 C11          4.8670     2.0300     3.0120 cc         1 1OX      -0.325200
     12 C12          5.0670     5.5990     4.1040 cd         1 1OX      -0.026300
     13 C13          3.7580     1.6690     3.7420 cd         1 1OX       0.176400
     14 C14          3.5340     3.7990     4.6650 cd         1 1OX       0.139700
     15 C15          5.3910     3.3810     3.0960 c          1 1OX       0.589500
     16 N17         -0.4060     0.3670     3.7190 nd         1 1OX      -0.572100
     17 N18          3.0880     2.5340     4.5750 nc         1 1OX      -0.372600
     18 N19          1.8600     0.0860     3.4080 na         1 1OX      -0.176300
     19 N20          4.6650     4.2770     3.9630 n          1 1OX      -0.101200
     20 O21          6.3880     3.8140     2.4950 o          1 1OX      -0.615500
     21 H1          -1.2040    -0.7510    -0.7710 ha         1 1OX       0.132000
     22 H2           1.2290    -1.0050    -1.1160 ha         1 1OX       0.131000
     23 H3          -2.1390    -0.1110     1.4570 ha         1 1OX       0.147000
     24 H4           2.8470    -0.6370     0.7440 ha         1 1OX       0.132000
     25 H5           1.0040     0.7100     5.3300 h5         1 1OX       0.077800
     26 H7           1.9480     4.3720     6.0670 ha         1 1OX       0.173000
     27 H8           4.7440     7.5180     5.0060 ha         1 1OX       0.161000
     28 H9           5.4010     1.3460     2.3410 ha         1 1OX       0.172000
     29 H11          5.9620     5.8800     3.5120 h4         1 1OX       0.194000
     30 C16          3.2540     0.2350     3.6660 c3         1 1OX       0.101500
     31 H6           2.7270     6.7530     6.2870 ha         1 1OX       0.151000
     32 H12          3.8250    -0.3000     2.8520 h1         1 1OX       0.077700
     33 H13          3.4890    -0.2590     4.6560 h1         1 1OX       0.077700
@<TRIPOS>BOND
     1     1     2 ar  
     2     1     3 ar  
     3     1    21 1   
     4     2     4 ar  
     5     2    22 1   
     6     3     6 ar  
     7     3    23 1   
     8     4     7 ar  
     9     4    24 1   
    10     5    16 2   
    11     5    18 1   
    12     5    25 1   
    13     6     7 ar  
    14     6    16 1   
    15     7    18 1   
    16     8     9 2   
    17     8    10 1   
    18     8    31 1   
    19     9    14 1   
    20     9    26 1   
    21    10    12 2   
    22    10    27 1   
    23    11    13 2   
    24    11    15 1   
    25    11    28 1   
    26    12    19 1   
    27    12    29 1   
    28    13    17 1   
    29    13    30 1   
    30    14    17 2   
    31    14    19 1   
    32    15    19 1   
    33    15    20 2   
    34    18    30 1   
    35    30    32 1   
    36    30    33 1   
@<TRIPOS>SUBSTRUCTURE
     1 1OX         1 TEMP              0 ****  ****    0 ROOT
