@<TRIPOS>MOLECULE
1OX
   33    36     1     0     0
SMALL
bcc


@<TRIPOS>ATOM
      1 C1           0.0000     0.0000     0.0000 ca         1 1OX      -0.121000
      2 C2           1.3870     0.0000     0.0000 ca         1 1OX      -0.096000
      3 C3          -0.6980     0.0000     1.1760 ca         1 1OX      -0.041000
      4 C4           2.0860     0.0000     1.1900 ca         1 1OX      -0.081000
      5 C5           0.6370    -0.0150     4.4670 cc         1 1OX       0.259700
      6 C6          -0.0110    -0.0060     2.3920 ca         1 1OX       0.061400
      7 C7           1.3940    -0.0000     2.3930 ca         1 1OX      -0.251200
      8 C8           5.6320     5.0700     2.0740 cc         1 1OX      -0.048000
      9 C9           5.1740     3.7870     2.0550 cd         1 1OX      -0.106000
     10 C10          5.5590     5.8120     3.2600 cc         1 1OX      -0.133000
     11 C11          3.5760     2.1310     5.4660 cc         1 1OX      -0.333200
     12 C12          5.0360     5.2580     4.3780 cd         1 1OX      -0.195300
     13 C13          3.6620     1.4140     4.2890 cd         1 1OX       0.146400
     14 C14          4.6290     3.2290     3.2260 cd         1 1OX      -0.078300
     15 C15          4.0590     3.4440     5.4970 c          1 1OX       0.461500
     16 N17         -0.4070    -0.0080     3.6910 nd         1 1OX      -0.520100
     17 N18          4.1820     1.9750     3.2090 nc         1 1OX      -0.292600
     18 N19          1.7740    -0.0010     3.7200 na         1 1OX       0.298700
     19 N20          4.5760     3.9760     4.3680 n          1 1OX       0.478800
     20 O21          4.0010     4.1030     6.5230 o          1 1OX      -0.676500
     21 H1          -0.5360    -0.0000    -0.9410 ha         1 1OX       0.102000
     22 H2           1.9250    -0.0000    -0.9400 ha         1 1OX       0.101000
     23 H3          -1.7810     0.0000     1.1640 ha         1 1OX       0.109000
     24 H4           3.1690    -0.0000     1.1840 ha         1 1OX       0.110000
     25 H5           0.6050    -0.0290     5.5500 h5         1 1OX       0.027800
     26 H7           5.2250     3.2020     1.1440 ha         1 1OX       0.140000
     27 H8           5.9220     6.8330     3.2820 ha         1 1OX       0.126000
     28 H9           3.3180     1.6270     6.3900 ha         1 1OX       0.149000
     29 H11          4.9840     5.8400     5.2910 h4         1 1OX       0.170000
     30 C16          3.1480    -0.0010     4.2300 c3         1 1OX       0.026500
     31 H6           6.0510     5.5130     1.1790 ha         1 1OX       0.117000
     32 H12          3.1640    -0.4330     5.2240 h1         1 1OX       0.044200
     33 H13          3.7770    -0.5870     3.5720 h1         1 1OX       0.044200
@<TRIPOS>BOND
     1     1     2 ar  
     2     1     3 ar  
     3     1    21 1   
     4     2     4 ar  
     5     2    22 1   
     6     3     6 ar  
     7     3    23 1   
     8     4     7 ar  
     9     4    24 1   
    10     5    16 2   
    11     5    18 1   
    12     5    25 1   
    13     6     7 ar  
    14     6    16 1   
    15     7    18 1   
    16     8     9 2   
    17     8    10 1   
    18     8    31 1   
    19     9    14 1   
    20     9    26 1   
    21    10    12 2   
    22    10    27 1   
    23    11    13 2   
    24    11    15 1   
    25    11    28 1   
    26    12    19 1   
    27    12    29 1   
    28    13    17 1   
    29    13    30 1   
    30    14    17 2   
    31    14    19 1   
    32    15    19 1   
    33    15    20 2   
    34    18    30 1   
    35    30    32 1   
    36    30    33 1   
@<TRIPOS>SUBSTRUCTURE
     1 1OX         1 TEMP              0 ****  ****    0 ROOT
