@<TRIPOS>MOLECULE
1OY
   69    71     1     0     0
SMALL
bcc


@<TRIPOS>ATOM
      1 C1          -0.0880     0.4200    -0.2790 c3         1 1OY       0.112500
      2 C10         -0.4630    -0.7030    -1.2560 c          1 1OY       0.546100
      3 N11          0.5010    -1.8510    -1.3820 ny         1 1OY      -0.675800
      4 C12         -0.1640    -3.1800    -1.5440 c3         1 1OY       0.113800
      5 C13          0.6650    -4.1720    -2.3430 c3         1 1OY      -0.141400
      6 C14          0.3560    -4.1630    -3.8410 c3         1 1OY       0.097100
      7 O14          1.3620    -4.9020    -4.5160 oh         1 1OY      -0.592800
      8 C15          0.3900    -2.7670    -4.4770 c3         1 1OY       0.118400
      9 O15          1.5580    -2.0590    -4.1090 oh         1 1OY      -0.644800
     10 O10         -1.4710    -0.7350    -1.9450 o          1 1OY      -0.423100
     11 N1           1.3460     0.6410    -0.2450 n7         1 1OY      -0.845200
     12 C2          -0.5890     0.0240     1.1430 c3         1 1OY      -0.012400
     13 C21         -1.8880     0.6640     1.4880 ca         1 1OY      -0.147300
     14 C26         -2.1250     2.0260     1.2810 ca         1 1OY      -0.097000
     15 C25         -3.3490     2.6000     1.6150 ca         1 1OY      -0.117000
     16 C22         -2.9270    -0.1330     2.0300 ca         1 1OY       0.141900
     17 F2          -2.7260    -1.4610     2.2100 f          1 1OY      -0.128900
     18 C23         -4.1670     0.4540     2.3700 ca         1 1OY      -0.014600
     19 Cl2         -5.4230    -0.4710     3.0280 cl         1 1OY      -0.033400
     20 C24         -4.3660     1.8210     2.1610 ca         1 1OY      -0.077000
     21 C3           0.6090     0.3590     2.0870 c3         1 1OY       0.065400
     22 C37          0.4080     1.6700     2.6920 c1         1 1OY       0.201700
     23 N37          0.2580     2.7260     3.1560 n1         1 1OY      -0.319800
     24 C31          0.8100    -0.7070     3.1290 ca         1 1OY      -0.118300
     25 C32          1.0420    -2.0610     2.7880 ca         1 1OY       0.120900
     26 F3           1.0730    -2.4670     1.4870 f          1 1OY      -0.186900
     27 C33          1.2430    -3.0430     3.7730 ca         1 1OY      -0.149000
     28 C36          0.7800    -0.3860     4.4930 ca         1 1OY      -0.078000
     29 C35          0.9750    -1.3490     5.4800 ca         1 1OY      -0.117000
     30 C34          1.2090    -2.6800     5.1200 ca         1 1OY       0.052400
     31 Cl3          1.4510    -3.8560     6.3100 cl         1 1OY      -0.035400
     32 C4           1.8540     0.4380     1.1140 c3         1 1OY       0.176500
     33 C41          2.8760     1.4700     1.5890 c3         1 1OY      -0.087400
     34 C42          4.2900     1.3120     1.0270 c3         1 1OY      -0.054000
     35 C45          4.3190     1.4700    -0.4840 c3         1 1OY      -0.091433
     36 C44          4.8880    -0.0320     1.4130 c3         1 1OY      -0.091433
     37 C43          5.1430     2.4190     1.6480 c3         1 1OY      -0.091433
     38 H1          -0.6530     1.3230    -0.6670 h1         1 1OY       0.121700
     39 H2           1.1060    -1.8780    -0.5490 hn         1 1OY       0.483800
     40 H3          -1.1630    -3.0240    -2.0490 hx         1 1OY       0.109700
     41 H4          -0.3480    -3.5790    -0.5030 hx         1 1OY       0.109700
     42 H5           0.4440    -5.1990    -1.9420 hc         1 1OY       0.085700
     43 H6           1.7680    -4.0010    -2.2060 hc         1 1OY       0.085700
     44 H7          -0.6590    -4.6150    -4.0220 h1         1 1OY       0.064700
     45 H8           1.2010    -5.8390    -4.3480 ho         1 1OY       0.424000
     46 H9           0.3290    -2.8700    -5.5930 h1         1 1OY       0.074200
     47 H10         -0.4660    -2.1430    -4.1050 h1         1 1OY       0.074200
     48 H11          2.3110    -2.5120    -4.5140 ho         1 1OY       0.446000
     49 H12          1.6010     1.5370    -0.6180 hn         1 1OY       0.410800
     50 H14         -0.7310    -1.0950     1.1750 hc         1 1OY       0.082700
     51 H15         -1.3350     2.6660     0.8560 ha         1 1OY       0.140000
     52 H16         -3.5130     3.6770     1.4510 ha         1 1OY       0.162000
     53 H17         -5.3320     2.2820     2.4290 ha         1 1OY       0.171000
     54 H18          1.4230    -4.0870     3.4700 ha         1 1OY       0.171000
     55 H19          0.5950     0.6490     4.8250 ha         1 1OY       0.164000
     56 H20          0.9420    -1.0580     6.5430 ha         1 1OY       0.173000
     57 H21          2.3510    -0.5770     1.1130 h1         1 1OY       0.080700
     58 H22          2.9420     1.3800     2.7080 hc         1 1OY       0.066200
     59 H23          2.5150     2.5070     1.3540 hc         1 1OY       0.066200
     60 H24          3.7500     2.3780    -0.7960 hc         1 1OY       0.040811
     61 H25          5.3760     1.5830    -0.8320 hc         1 1OY       0.040811
     62 H26          3.8890     0.5730    -0.9900 hc         1 1OY       0.040811
     63 H27          4.7860    -0.2050     2.5110 hc         1 1OY       0.040811
     64 H28          4.3880    -0.8680     0.8680 hc         1 1OY       0.040811
     65 H29          5.9750    -0.0520     1.1520 hc         1 1OY       0.040811
     66 H30          5.1460     2.3300     2.7610 hc         1 1OY       0.040811
     67 H31          4.7410     3.4220     1.3690 hc         1 1OY       0.040811
     68 H32          6.1950     2.3430     1.2830 hc         1 1OY       0.040811
     69 H112         1.1060    -1.6600    -2.2030 hn         1 1OY       0.483800
@<TRIPOS>BOND
     1     1     2 1   
     2     1    11 1   
     3     1    12 1   
     4     1    38 1   
     5     2     3 1   
     6     2    10 2   
     7     3     4 1   
     8     3    39 1   
     9     3    69 1   
    10     4     5 1   
    11     4    40 1   
    12     4    41 1   
    13     5     6 1   
    14     5    42 1   
    15     5    43 1   
    16     6     7 1   
    17     6     8 1   
    18     6    44 1   
    19     7    45 1   
    20     8     9 1   
    21     8    46 1   
    22     8    47 1   
    23     9    48 1   
    24    11    32 1   
    25    11    49 1   
    26    12    13 1   
    27    12    21 1   
    28    12    50 1   
    29    13    14 ar  
    30    13    16 ar  
    31    14    15 ar  
    32    14    51 1   
    33    15    20 ar  
    34    15    52 1   
    35    16    17 1   
    36    16    18 ar  
    37    18    19 1   
    38    18    20 ar  
    39    20    53 1   
    40    21    22 1   
    41    21    24 1   
    42    21    32 1   
    43    22    23 3   
    44    24    25 ar  
    45    24    28 ar  
    46    25    26 1   
    47    25    27 ar  
    48    27    30 ar  
    49    27    54 1   
    50    28    29 ar  
    51    28    55 1   
    52    29    30 ar  
    53    29    56 1   
    54    30    31 1   
    55    32    33 1   
    56    32    57 1   
    57    33    34 1   
    58    33    58 1   
    59    33    59 1   
    60    34    35 1   
    61    34    36 1   
    62    34    37 1   
    63    35    60 1   
    64    35    61 1   
    65    35    62 1   
    66    36    63 1   
    67    36    64 1   
    68    36    65 1   
    69    37    66 1   
    70    37    67 1   
    71    37    68 1   
@<TRIPOS>SUBSTRUCTURE
     1 1OY         1 TEMP              0 ****  ****    0 ROOT
