@<TRIPOS>MOLECULE
molecule
   68    70     1     0     0
SMALL
bcc


@<TRIPOS>ATOM
      1 C1           0.0000     0.0000     0.0000 c3         1 1OY       0.076500
      2 C10         -0.5140    -1.4130    -0.1040 c          1 1OY       0.635100
      3 N11         -1.7860    -1.6410    -0.4860 ns         1 1OY      -0.577900
      4 C12         -2.2860    -3.0150    -0.5870 c3         1 1OY       0.112000
      5 C13         -3.7480    -2.9940    -1.0360 c3         1 1OY      -0.104400
      6 C14         -4.2700    -4.4280    -1.1420 c3         1 1OY       0.156100
      7 O14         -3.5660    -5.1160    -2.1780 oh         1 1OY      -0.600800
      8 C15         -5.7640    -4.4050    -1.4700 c3         1 1OY       0.119400
      9 O15         -6.2770    -5.7380    -1.4540 oh         1 1OY      -0.611800
     10 O10          0.2170    -2.3450     0.1560 o          1 1OY      -0.611100
     11 N1           1.4780     0.0000     0.0000 n7         1 1OY      -0.781200
     12 C2          -0.4560     0.6280     1.3310 c3         1 1OY      -0.010400
     13 C21         -1.2400     1.8880     1.0730 ca         1 1OY      -0.133300
     14 C26         -0.6590     2.9330     0.3780 ca         1 1OY      -0.096000
     15 C25         -1.3780     4.0910     0.1420 ca         1 1OY      -0.127000
     16 C22         -2.5430     1.9980     1.5260 ca         1 1OY       0.144900
     17 F2          -3.1120     0.9760     2.2010 f          1 1OY      -0.127900
     18 C23         -3.2620     3.1590     1.2880 ca         1 1OY      -0.017600
     19 Cl2         -4.8970     3.2980     1.8570 cl         1 1OY      -0.085400
     20 C24         -2.6780     4.2040     0.5980 ca         1 1OY      -0.093000
     21 C3           0.8500     0.9540     2.0910 c3         1 1OY       0.061400
     22 C37          1.2340     2.3600     1.8880 c1         1 1OY       0.254700
     23 N37          1.5490     3.4400     1.7300 n1         1 1OY      -0.379800
     24 C31          0.7020     0.6500     3.5590 ca         1 1OY      -0.121300
     25 C32          0.3190    -0.6160     3.9700 ca         1 1OY       0.149900
     26 F3           0.0740    -1.5780     3.0530 f          1 1OY      -0.123900
     27 C33          0.1880    -0.8950     5.3190 ca         1 1OY      -0.158000
     28 C36          0.9530     1.6340     4.4980 ca         1 1OY      -0.083000
     29 C35          0.8170     1.3550     5.8440 ca         1 1OY      -0.132000
     30 C34          0.4410     0.0890     6.2570 ca         1 1OY       0.056400
     31 Cl3          0.2760    -0.2600     7.9490 cl         1 1OY      -0.090400
     32 C4           1.8840     0.0000     1.4290 c3         1 1OY       0.159500
     33 C41          3.3050     0.5440     1.5860 c3         1 1OY      -0.062400
     34 C42          4.2960    -0.4240     0.9380 c3         1 1OY      -0.070000
     35 C45          5.7260     0.0430     1.2230 c3         1 1OY      -0.089767
     36 C44          4.0940    -1.8260     1.5170 c3         1 1OY      -0.089767
     37 C43          4.0630    -0.4570    -0.5730 c3         1 1OY      -0.089767
     38 H1          -0.3660     0.5930    -0.8300 h1         1 1OY       0.088700
     39 H2          -2.3770    -0.8740    -0.7400 hn         1 1OY       0.316500
     40 H3          -1.6940    -3.5620    -1.3110 h1         1 1OY       0.061200
     41 H4          -2.2120    -3.4980     0.3800 h1         1 1OY       0.061200
     42 H5          -4.3400    -2.4460    -0.3120 hc         1 1OY       0.056700
     43 H6          -3.8220    -2.5100    -2.0030 hc         1 1OY       0.056700
     44 H7          -4.1160    -4.9390    -0.1990 h1         1 1OY       0.046700
     45 H8          -3.3710    -5.9950    -1.8960 ho         1 1OY       0.414000
     46 H9          -5.9110    -3.9730    -2.4530 h1         1 1OY       0.030700
     47 H10         -6.2870    -3.8080    -0.7320 h1         1 1OY       0.030700
     48 H11         -7.2150    -5.7150    -1.5410 ho         1 1OY       0.406000
     49 H12          1.8120    -0.8340    -0.4420 hn         1 1OY       0.389800
     50 H14         -1.0490    -0.0820     1.8950 hc         1 1OY       0.098700
     51 H15          0.3590     2.8460     0.0200 ha         1 1OY       0.168000
     52 H16         -0.9220     4.9100    -0.4010 ha         1 1OY       0.149000
     53 H17         -3.2400     5.1110     0.4120 ha         1 1OY       0.152000
     54 H18         -0.1090    -1.8860     5.6400 ha         1 1OY       0.163000
     55 H19          1.2480     2.6260     4.1780 ha         1 1OY       0.157000
     56 H20          1.0150     2.1270     6.5790 ha         1 1OY       0.153000
     57 H21          1.8020    -0.9960     1.8460 h1         1 1OY       0.081700
     58 H22          3.3770     1.5110     1.1040 hc         1 1OY       0.055200
     59 H23          3.5380     0.6470     2.6390 hc         1 1OY       0.055200
     60 H24          5.8680     1.0380     0.8200 hc         1 1OY       0.039144
     61 H25          5.8940     0.0600     2.2930 hc         1 1OY       0.039144
     62 H26          6.4280    -0.6390     0.7580 hc         1 1OY       0.039144
     63 H27          4.9790    -2.4230     1.3350 hc         1 1OY       0.039144
     64 H28          3.9190    -1.7540     2.5840 hc         1 1OY       0.039144
     65 H29          3.2400    -2.2930     1.0420 hc         1 1OY       0.039144
     66 H30          3.4290     0.3730    -0.8590 hc         1 1OY       0.039144
     67 H31          5.0130    -0.3800    -1.0870 hc         1 1OY       0.039144
     68 H32          3.5810    -1.3890    -0.8430 hc         1 1OY       0.039144
@<TRIPOS>BOND
     1    31    30 1
     2    36    34 1
     3    27    30 ar
     4    27    25 ar
     5    26    25 1
     6    35    34 1
     7     7     6 1
     8    30    29 ar
     9    25    24 ar
    10    34    37 1
    11    34    33 1
    12     6     5 1
    13     6     8 1
    14     4     5 1
    15     4     3 1
    16    29    28 ar
    17    17    16 1
    18    32    33 1
    19    32    11 1
    20    32    21 1
    21     3     2 1
    22    24    28 ar
    23    24    21 1
    24     8     9 1
    25    11     1 1
    26    21    12 1
    27    21    22 1
    28     2    10 2
    29     2     1 1
    30    12     1 1
    31    12    13 1
    32    16    13 ar
    33    16    18 ar
    34    19    18 1
    35    13    14 ar
    36    22    23 3
    37    18    20 ar
    38    14    15 ar
    39    20    15 ar
    40     1    38 1
    41     3    39 1
    42     4    40 1
    43     4    41 1
    44     5    42 1
    45     5    43 1
    46     6    44 1
    47     7    45 1
    48     8    46 1
    49     8    47 1
    50     9    48 1
    51    11    49 1
    52    12    50 1
    53    14    51 1
    54    15    52 1
    55    20    53 1
    56    27    54 1
    57    28    55 1
    58    29    56 1
    59    32    57 1
    60    33    58 1
    61    33    59 1
    62    35    60 1
    63    35    61 1
    64    35    62 1
    65    36    63 1
    66    36    64 1
    67    36    65 1
    68    37    66 1
    69    37    67 1
    70    37    68 1
@<TRIPOS>SUBSTRUCTURE
     1 1OY         1 TEMP              0 ****  ****    0 ROOT
