@<TRIPOS>MOLECULE
1OY
   68    70     1     0     0
SMALL
bcc


@<TRIPOS>ATOM
      1 C1           0.0000     0.0000     0.0000 c3         1 1OY       0.044500
      2 C10         -0.5140    -1.4130    -0.1040 c          1 1OY       0.549100
      3 N11         -1.7860    -1.6410    -0.4860 ns         1 1OY      -0.179900
      4 C12         -2.2860    -3.0150    -0.5870 c3         1 1OY       0.046000
      5 C13         -3.7480    -2.9940    -1.0360 c3         1 1OY      -0.052400
      6 C14         -4.2700    -4.4280    -1.1420 c3         1 1OY       0.190100
      7 O14         -3.5660    -5.1160    -2.1780 oh         1 1OY      -0.582800
      8 C15         -5.7640    -4.4050    -1.4700 c3         1 1OY       0.197400
      9 O15         -6.2770    -5.7380    -1.4540 oh         1 1OY      -0.592800
     10 O10          0.2170    -2.3450     0.1560 o          1 1OY      -0.647100
     11 N1           1.4780     0.0000     0.0000 n7         1 1OY      -0.594200
     12 C2          -0.4560     0.6280     1.3310 c3         1 1OY       0.005600
     13 C21         -1.2400     1.8880     1.0730 ca         1 1OY      -0.130300
     14 C26         -0.6590     2.9330     0.3780 ca         1 1OY      -0.087000
     15 C25         -1.3780     4.0910     0.1420 ca         1 1OY      -0.086000
     16 C22         -2.5430     1.9980     1.5260 ca         1 1OY       0.113900
     17 F2          -3.1120     0.9760     2.2010 f          1 1OY      -0.121900
     18 C23         -3.2620     3.1590     1.2880 ca         1 1OY      -0.076600
     19 Cl2         -4.8970     3.2980     1.8570 cl         1 1OY       0.006600
     20 C24         -2.6780     4.2040     0.5980 ca         1 1OY      -0.072000
     21 C3           0.8500     0.9540     2.0910 c3         1 1OY       0.129400
     22 C37          1.2340     2.3600     1.8880 c1         1 1OY       0.246700
     23 N37          1.5490     3.4400     1.7300 n1         1 1OY      -0.400800
     24 C31          0.7020     0.6500     3.5590 ca         1 1OY      -0.129300
     25 C32          0.3190    -0.6160     3.9700 ca         1 1OY       0.129900
     26 F3           0.0740    -1.5780     3.0530 f          1 1OY      -0.117900
     27 C33          0.1880    -0.8950     5.3190 ca         1 1OY      -0.127000
     28 C36          0.9530     1.6340     4.4980 ca         1 1OY      -0.060000
     29 C35          0.8170     1.3550     5.8440 ca         1 1OY      -0.104000
     30 C34          0.4410     0.0890     6.2570 ca         1 1OY      -0.010600
     31 Cl3          0.2760    -0.2600     7.9490 cl         1 1OY      -0.005400
     32 C4           1.8840     0.0000     1.4290 c3         1 1OY       0.104500
     33 C41          3.3050     0.5440     1.5860 c3         1 1OY      -0.025400
     34 C42          4.2960    -0.4240     0.9380 c3         1 1OY      -0.066000
     35 C45          5.7260     0.0430     1.2230 c3         1 1OY      -0.010433
     36 C44          4.0940    -1.8260     1.5170 c3         1 1OY      -0.010433
     37 C43          4.0630    -0.4570    -0.5730 c3         1 1OY      -0.010433
     38 H1          -0.3660     0.5930    -0.8300 h1         1 1OY       0.056700
     39 H2          -2.3770    -0.8740    -0.7400 hn         1 1OY       0.176500
     40 H3          -1.6940    -3.5620    -1.3110 h1         1 1OY       0.034700
     41 H4          -2.2120    -3.4980     0.3800 h1         1 1OY       0.034700
     42 H5          -4.3400    -2.4460    -0.3120 hc         1 1OY       0.025700
     43 H6          -3.8220    -2.5100    -2.0030 hc         1 1OY       0.025700
     44 H7          -4.1160    -4.9390    -0.1990 h1         1 1OY       0.011700
     45 H8          -3.3710    -5.9950    -1.8960 ho         1 1OY       0.400000
     46 H9          -5.9110    -3.9730    -2.4530 h1         1 1OY      -0.005300
     47 H10         -6.2870    -3.8080    -0.7320 h1         1 1OY      -0.005300
     48 H11         -7.2150    -5.7150    -1.5410 ho         1 1OY       0.393000
     49 H12          1.8120    -0.8340    -0.4420 hn         1 1OY       0.308800
     50 H14         -1.0490    -0.0820     1.8950 hc         1 1OY       0.072700
     51 H15          0.3590     2.8460     0.0200 ha         1 1OY       0.148000
     52 H16         -0.9220     4.9100    -0.4010 ha         1 1OY       0.117000
     53 H17         -3.2400     5.1110     0.4120 ha         1 1OY       0.120000
     54 H18         -0.1090    -1.8860     5.6400 ha         1 1OY       0.134000
     55 H19          1.2480     2.6260     4.1780 ha         1 1OY       0.129000
     56 H20          1.0150     2.1270     6.5790 ha         1 1OY       0.122000
     57 H21          1.8020    -0.9960     1.8460 h1         1 1OY       0.070700
     58 H22          3.3770     1.5110     1.1040 hc         1 1OY       0.030700
     59 H23          3.5380     0.6470     2.6390 hc         1 1OY       0.030700
     60 H24          5.8680     1.0380     0.8200 hc         1 1OY       0.011922
     61 H25          5.8940     0.0600     2.2930 hc         1 1OY       0.011922
     62 H26          6.4280    -0.6390     0.7580 hc         1 1OY       0.011922
     63 H27          4.9790    -2.4230     1.3350 hc         1 1OY       0.011922
     64 H28          3.9190    -1.7540     2.5840 hc         1 1OY       0.011922
     65 H29          3.2400    -2.2930     1.0420 hc         1 1OY       0.011922
     66 H30          3.4290     0.3730    -0.8590 hc         1 1OY       0.011922
     67 H31          5.0130    -0.3800    -1.0870 hc         1 1OY       0.011922
     68 H32          3.5810    -1.3890    -0.8430 hc         1 1OY       0.011922
@<TRIPOS>BOND
     1     1     2 1   
     2     1    11 1   
     3     1    12 1   
     4     1    38 1   
     5     2     3 1   
     6     2    10 2   
     7     3     4 1   
     8     3    39 1   
     9     4     5 1   
    10     4    40 1   
    11     4    41 1   
    12     5     6 1   
    13     5    42 1   
    14     5    43 1   
    15     6     7 1   
    16     6     8 1   
    17     6    44 1   
    18     7    45 1   
    19     8     9 1   
    20     8    46 1   
    21     8    47 1   
    22     9    48 1   
    23    11    32 1   
    24    11    49 1   
    25    12    13 1   
    26    12    21 1   
    27    12    50 1   
    28    13    14 ar  
    29    13    16 ar  
    30    14    15 ar  
    31    14    51 1   
    32    15    20 ar  
    33    15    52 1   
    34    16    17 1   
    35    16    18 ar  
    36    18    19 1   
    37    18    20 ar  
    38    20    53 1   
    39    21    22 1   
    40    21    24 1   
    41    21    32 1   
    42    22    23 3   
    43    24    25 ar  
    44    24    28 ar  
    45    25    26 1   
    46    25    27 ar  
    47    27    30 ar  
    48    27    54 1   
    49    28    29 ar  
    50    28    55 1   
    51    29    30 ar  
    52    29    56 1   
    53    30    31 1   
    54    32    33 1   
    55    32    57 1   
    56    33    34 1   
    57    33    58 1   
    58    33    59 1   
    59    34    35 1   
    60    34    36 1   
    61    34    37 1   
    62    35    60 1   
    63    35    61 1   
    64    35    62 1   
    65    36    63 1   
    66    36    64 1   
    67    36    65 1   
    68    37    66 1   
    69    37    67 1   
    70    37    68 1   
@<TRIPOS>SUBSTRUCTURE
     1 1OY         1 TEMP              0 ****  ****    0 ROOT
