@<TRIPOS>MOLECULE
1P0
   53    55     1     0     0
SMALL
bcc


@<TRIPOS>ATOM
      1 OAA          1.1180    -0.7110    -0.4040 oh         1 1P0      -0.608800
      2 CAG          2.4820    -0.8810    -0.7560 c3         1 1P0       0.110733
      3 CAJ          3.3280    -0.3670     0.4150 c3         1 1P0       0.023967
      4 NAZ          3.1610    -1.1240     1.6450 na         1 1P0       0.070733
      5 CAD          1.9500    -1.2950     2.3160 cc         1 1P0      -0.140600
      6 NAS          4.1570    -1.7630     2.3170 nc         1 1P0      -0.129467
      7 NAP          3.6940    -2.3060     3.3610 nd         1 1P0      -0.361000
      8 CAV          2.2960    -2.0660     3.4460 cd         1 1P0       0.139933
      9 CAM          1.4600    -2.4920     4.5820 c3         1 1P0       0.124833
     10 NAY          1.5270    -3.9810     4.8070 nx         1 1P0      -0.678400
     11 CAO          1.3890    -4.3380     6.2560 c3         1 1P0       0.124833
     12 CAX          0.3410    -3.6110     6.9970 cc         1 1P0       0.139933
     13 CAF          0.3650    -3.2090     8.3500 cd         1 1P0      -0.140600
     14 NAR         -0.9390    -3.2660     6.4950 nc         1 1P0      -0.361000
     15 NAU         -1.6250    -2.7230     7.4130 nd         1 1P0      -0.129467
     16 NBB         -0.8980    -2.6470     8.5560 na         1 1P0       0.070733
     17 CAL         -1.4150    -2.1890     9.8340 c3         1 1P0       0.023967
     18 CAI         -2.0640    -3.2960    10.6810 c3         1 1P0       0.110733
     19 OAC         -3.0470    -4.0120     9.9740 oh         1 1P0      -0.608800
     20 CAN          0.5300    -4.6900     3.9320 c3         1 1P0       0.124833
     21 CAW          0.7020    -6.1540     3.9420 cc         1 1P0       0.139933
     22 CAE         -0.2870    -7.1600     3.9660 cd         1 1P0      -0.140600
     23 NAQ          1.9540    -6.8160     3.8400 nc         1 1P0      -0.361000
     24 NAT          1.7720    -8.0690     3.8060 nd         1 1P0      -0.129467
     25 NBA          0.4430    -8.3470     3.8730 na         1 1P0       0.070733
     26 CAK         -0.1370    -9.6800     3.8640 c3         1 1P0       0.023967
     27 CAH         -1.1580    -9.9080     2.7420 c3         1 1P0       0.110733
     28 OAB         -2.2620    -9.0540     2.9960 oh         1 1P0      -0.608800
     29 H1           0.6030    -0.7940    -1.2150 ho         1 1P0       0.421000
     30 H2           2.6840    -1.9640    -0.9680 h1         1 1P0       0.060200
     31 H3           2.7390    -0.2680    -1.6610 h1         1 1P0       0.060200
     32 H4           3.0360     0.7000     0.6370 h1         1 1P0       0.092200
     33 H5           4.4130    -0.3980     0.1090 h1         1 1P0       0.092200
     34 H6           1.0070    -0.8850     1.9440 h4         1 1P0       0.221000
     35 H7           0.3850    -2.2000     4.4010 hx         1 1P0       0.111367
     36 H8           1.8170    -1.9940     5.5310 hx         1 1P0       0.111367
     37 H10          2.3880    -4.1340     6.7460 hx         1 1P0       0.111367
     38 H11          1.1820    -5.4500     6.3050 hx         1 1P0       0.111367
     39 H12          1.1310    -3.2720     9.1210 h4         1 1P0       0.221000
     40 H13         -2.1750    -1.3790     9.6360 h1         1 1P0       0.092200
     41 H14         -0.5540    -1.7460    10.4100 h1         1 1P0       0.092200
     42 H15         -2.4930    -2.8120    11.6010 h1         1 1P0       0.060200
     43 H16         -1.3100    -4.0720    10.9830 h1         1 1P0       0.060200
     44 H17         -3.7740    -3.4060     9.7810 ho         1 1P0       0.421000
     45 H18         -0.5130    -4.4260     4.2680 hx         1 1P0       0.111367
     46 H19          0.6920    -4.2920     2.8850 hx         1 1P0       0.111367
     47 H20         -1.3790    -7.1400     4.0130 h4         1 1P0       0.221000
     48 H21         -0.6470    -9.8310     4.8580 h1         1 1P0       0.092200
     49 H22          0.6890   -10.4400     3.7510 h1         1 1P0       0.092200
     50 H23         -0.7230    -9.6800     1.7330 h1         1 1P0       0.060200
     51 H24         -1.4740   -10.9850     2.7790 h1         1 1P0       0.060200
     52 H25         -2.9750    -9.3290     2.4060 ho         1 1P0       0.421000
     53 HAY1         2.4670    -4.3080     4.5220 hn         1 1P0       0.476800
@<TRIPOS>BOND
     1     1     2 1   
     2     1    29 1   
     3     2     3 1   
     4     2    30 1   
     5     2    31 1   
     6     3     4 1   
     7     3    32 1   
     8     3    33 1   
     9     4     5 1   
    10     4     6 1   
    11     5     8 2   
    12     5    34 1   
    13     6     7 2   
    14     7     8 1   
    15     8     9 1   
    16     9    10 1   
    17     9    35 1   
    18     9    36 1   
    19    10    11 1   
    20    10    20 1   
    21    10    53 1   
    22    11    12 1   
    23    11    37 1   
    24    11    38 1   
    25    12    13 2   
    26    12    14 1   
    27    13    16 1   
    28    13    39 1   
    29    14    15 2   
    30    15    16 1   
    31    16    17 1   
    32    17    18 1   
    33    17    40 1   
    34    17    41 1   
    35    18    19 1   
    36    18    42 1   
    37    18    43 1   
    38    19    44 1   
    39    20    21 1   
    40    20    45 1   
    41    20    46 1   
    42    21    22 2   
    43    21    23 1   
    44    22    25 1   
    45    22    47 1   
    46    23    24 2   
    47    24    25 1   
    48    25    26 1   
    49    26    27 1   
    50    26    48 1   
    51    26    49 1   
    52    27    28 1   
    53    27    50 1   
    54    27    51 1   
    55    28    52 1   
@<TRIPOS>SUBSTRUCTURE
     1 1P0         1 TEMP              0 ****  ****    0 ROOT
