@<TRIPOS>MOLECULE
1P0
   53    55     1     0     0
SMALL
bcc


@<TRIPOS>ATOM
      1 OAA         0.0770    0.6630   -0.4600 oh        1 1P0     -0.597800
      2 CAG         1.3250    0.0560   -0.1750 c3        1 1P0      0.120400
      3 CAJ         1.7780    0.7130    1.1400 c3        1 1P0      0.034300
      4 NAZ         3.1450    0.3870    1.5090 na        1 1P0      0.072400
      5 CAD         4.1760    1.3110    1.6790 cc        1 1P0     -0.137600
      6 NAS         3.6110   -0.8690    1.7340 nc        1 1P0     -0.133800
      7 NAP         4.8430   -0.8300    2.0290 nd        1 1P0     -0.364000
      8 CAV         5.2920    0.5150    2.0190 cd        1 1P0      0.141600
      9 CAM         6.6790    0.9400    2.2760 c3        1 1P0      0.123500
     10 NAY         7.1830    0.4500    3.6100 n4        1 1P0     -0.685400
     11 CAO         7.7920   -0.9240    3.4840 c3        1 1P0      0.123500
     12 CAX         7.6100   -1.7240    4.7090 cc        1 1P0      0.141600
     13 CAF         7.0430   -3.0100    4.8440 cd        1 1P0     -0.137600
     14 NAR         8.0340   -1.3290    6.0030 nc        1 1P0     -0.364000
     15 NAU         7.7680   -2.2470    6.8360 nd        1 1P0     -0.133800
     16 NBB         7.1710   -3.2910    6.2040 na        1 1P0      0.072400
     17 CAL         6.7390   -4.5180    6.8520 c3        1 1P0      0.034300
     18 CAI         7.8820   -5.2840    7.5390 c3        1 1P0      0.120400
     19 OAC         7.3040   -6.5240    7.9060 oh        1 1P0     -0.597800
     20 CAN         8.1680    1.4240    4.2060 c3        1 1P0      0.123500
     21 CAW         7.5000    2.4620    5.0120 cc        1 1P0      0.141600
     22 CAE         7.7490    2.8310    6.3520 cd        1 1P0     -0.137600
     23 NAQ         6.4820    3.3250    4.5350 nc        1 1P0     -0.364000
     24 NAT         6.1400    4.1280    5.4540 nd        1 1P0     -0.133800
     25 NBA         6.8660    3.8880    6.5770 na        1 1P0      0.072400
     26 CAK         6.7420    4.6270    7.8220 c3        1 1P0      0.034300
     27 CAH         7.0370    6.1290    7.6740 c3        1 1P0      0.120400
     28 OAB         7.0770    6.6130    9.0050 oh        1 1P0     -0.597800
     29 H1         -0.3240    0.1550   -1.1760 ho        1 1P0      0.425000
     30 H2          2.0470    0.2660   -1.0080 h1        1 1P0      0.047200
     31 H3          1.2140   -1.0530   -0.0470 h1        1 1P0      0.047200
     32 H4          1.0900    0.3780    1.9700 h1        1 1P0      0.093367
     33 H5          1.7020    1.8320    1.0390 h1        1 1P0      0.093367
     34 H6          4.0530    2.3890    1.5600 h4        1 1P0      0.216000
     35 H7          6.7220    2.0690    2.2630 hx        1 1P0      0.112700
     36 H8          7.3750    0.5460    1.4790 hx        1 1P0      0.112700
     37 H10         7.3010   -1.4630    2.6210 hx        1 1P0      0.112700
     38 H11         8.8890   -0.7940    3.2480 hx        1 1P0      0.112700
     39 H12         6.5890   -3.6900    4.1210 h4        1 1P0      0.216000
     40 H13         5.9570   -4.2630    7.6240 h1        1 1P0      0.093367
     41 H14         6.2700   -5.1780    6.0690 h1        1 1P0      0.093367
     42 H15         8.7390   -5.4580    6.8350 h1        1 1P0      0.047200
     43 H16         8.2480   -4.7270    8.4410 h1        1 1P0      0.047200
     44 H17         7.9330   -6.9620    8.4940 ho        1 1P0      0.425000
     45 H18         8.7510    1.8870    3.3570 hx        1 1P0      0.112700
     46 H19         8.8870    0.8560    4.8670 hx        1 1P0      0.112700
     47 H20         8.4380    2.4420    7.1040 h4        1 1P0      0.216000
     48 H21         7.4620    4.1810    8.5650 h1        1 1P0      0.093367
     49 H22         5.6920    4.4990    8.2150 h1        1 1P0      0.093367
     50 H23         6.2280    6.6360    7.0850 h1        1 1P0      0.047200
     51 H24         8.0270    6.3050    7.1760 h1        1 1P0      0.047200
     52 H25         7.0810    7.5770    8.9520 ho        1 1P0      0.425000
     53 HAY1        6.3770    0.3820    4.2490 hn        1 1P0      0.464800
@<TRIPOS>BOND
     1    1    2 1   
     2    1   29 1   
     3    2    3 1   
     4    2   30 1   
     5    2   31 1   
     6    3    4 1   
     7    3   32 1   
     8    3   33 1   
     9    4    5 1   
    10    4    6 1   
    11    5    8 2   
    12    5   34 1   
    13    6    7 2   
    14    7    8 1   
    15    8    9 1   
    16    9   10 1   
    17    9   35 1   
    18    9   36 1   
    19   10   11 1   
    20   10   20 1   
    21   10   53 1   
    22   11   12 1   
    23   11   37 1   
    24   11   38 1   
    25   12   13 2   
    26   12   14 1   
    27   13   16 1   
    28   13   39 1   
    29   14   15 2   
    30   15   16 1   
    31   16   17 1   
    32   17   18 1   
    33   17   40 1   
    34   17   41 1   
    35   18   19 1   
    36   18   42 1   
    37   18   43 1   
    38   19   44 1   
    39   20   21 1   
    40   20   45 1   
    41   20   46 1   
    42   21   22 2   
    43   21   23 1   
    44   22   25 1   
    45   22   47 1   
    46   23   24 2   
    47   24   25 1   
    48   25   26 1   
    49   26   27 1   
    50   26   48 1   
    51   26   49 1   
    52   27   28 1   
    53   27   50 1   
    54   27   51 1   
    55   28   52 1   
@<TRIPOS>SUBSTRUCTURE
     1 1P0         1 TEMP              0 ****  ****    0 ROOT
