@<TRIPOS>MOLECULE
1P3
   25    25     1     0     0
SMALL
bcc


@<TRIPOS>ATOM
      1 C2          -0.0090    -0.0000    -0.0420 c3         1 1P3      -0.090100
      2 C3           1.5010    -0.0120    -0.0020 c3         1 1P3      -0.092700
      3 C20          1.9790    -0.0510     1.4620 c3         1 1P3       0.088000
      4 C4           2.0580    -1.2070    -0.7610 c3         1 1P3      -0.075400
      5 C5           3.5630    -1.2870    -0.6250 c3         1 1P3      -0.103400
      6 N1           3.4100    -0.1780     1.6080 n          1 1P3      -0.457800
      7 C6           3.9910    -1.2650     0.8440 c3         1 1P3       0.078000
      8 C7           3.5870     2.0880     2.6760 c3         1 1P3      -0.170100
      9 C10          4.2150     0.8890     2.0090 c          1 1P3       0.652100
     10 O11          5.4550     0.8230     1.8810 o          1 1P3      -0.608100
     11 H2C1        -0.3650     0.0380    -1.1000 hc         1 1P3       0.037367
     12 H2C2        -0.4070     0.8920     0.4990 hc         1 1P3       0.037367
     13 H2C3        -0.4260    -0.9190     0.4370 hc         1 1P3       0.037367
     14 H3           1.8850     0.9300    -0.4830 hc         1 1P3       0.053700
     15 H201         1.6050     0.8680     1.9900 h1         1 1P3       0.050700
     16 H202         1.5110    -0.9480     1.9630 h1         1 1P3       0.050700
     17 H4C1         1.5940    -2.1480    -0.3630 hc         1 1P3       0.042700
     18 H4C2         1.7780    -1.1250    -1.8430 hc         1 1P3       0.042700
     19 H5C1         3.9380    -2.2360    -1.0870 hc         1 1P3       0.050700
     20 H5C2         4.0400    -0.4310    -1.1710 hc         1 1P3       0.050700
     21 H6C1         3.6620    -2.2270     1.3320 h1         1 1P3       0.065200
     22 H6C2         5.1150    -1.2040     0.9030 h1         1 1P3       0.065200
     23 H7C1         2.9520     2.6480     1.9490 hc         1 1P3       0.065033
     24 H7C2         2.9660     1.7790     3.5510 hc         1 1P3       0.065033
     25 H7C3         4.4050     2.7610     3.0330 hc         1 1P3       0.065033
@<TRIPOS>BOND
     1     1     2 1   
     2     1    11 1   
     3     1    12 1   
     4     1    13 1   
     5     2     3 1   
     6     2     4 1   
     7     2    14 1   
     8     3     6 1   
     9     3    15 1   
    10     3    16 1   
    11     4     5 1   
    12     4    17 1   
    13     4    18 1   
    14     5     7 1   
    15     5    19 1   
    16     5    20 1   
    17     6     7 1   
    18     6     9 1   
    19     7    21 1   
    20     7    22 1   
    21     8     9 1   
    22     8    23 1   
    23     8    24 1   
    24     8    25 1   
    25     9    10 2   
@<TRIPOS>SUBSTRUCTURE
     1 1P3         1 TEMP              0 ****  ****    0 ROOT
