@<TRIPOS>MOLECULE
molecule
   25    25     1     0     0
SMALL
bcc


@<TRIPOS>ATOM
      1 C2           0.0000     0.0000     0.0000 c3         1 1P3      -0.087100
      2 C3           1.5290     0.0000     0.0000 c3         1 1P3      -0.093700
      3 C20          2.0410     0.0000     1.4440 c3         1 1P3       0.111000
      4 C4           2.0400    -1.2510    -0.7190 c3         1 1P3      -0.076400
      5 C5           3.5700    -1.2350    -0.7490 c3         1 1P3      -0.099400
      6 N1           3.5030    -0.1330     1.4270 n          1 1P3      -0.492800
      7 C6           4.1030    -1.2510     0.6870 c3         1 1P3       0.101000
      8 C7           5.7800     0.6060     2.0530 c3         1 1P3      -0.170100
      9 C10          4.2800     0.7540     2.0780 c          1 1P3       0.661100
     10 O11          3.7730     1.6730     2.6860 o          1 1P3      -0.613100
     11 H2C1        -0.3610    -0.8520     0.5630 hc         1 1P3       0.037033
     12 H2C2        -0.3610    -0.0620    -1.0190 hc         1 1P3       0.037033
     13 H2C3        -0.3610     0.9140     0.4560 hc         1 1P3       0.037033
     14 H3           1.8950     0.8820    -0.5110 hc         1 1P3       0.060700
     15 H201         1.6080    -0.8340     1.9820 h1         1 1P3       0.062700
     16 H202         1.7680     0.9310     1.9250 h1         1 1P3       0.062700
     17 H4C1         1.6990    -2.1330    -0.1910 hc         1 1P3       0.044200
     18 H4C2         1.6600    -1.2620    -1.7330 hc         1 1P3       0.044200
     19 H5C1         3.9120    -0.3380    -1.2510 hc         1 1P3       0.049200
     20 H5C2         3.9290    -2.1110    -1.2760 hc         1 1P3       0.049200
     21 H6C1         5.1810    -1.1390     0.6730 h1         1 1P3       0.048200
     22 H6C2         3.8350    -2.1860     1.1630 h1         1 1P3       0.048200
     23 H7C1         6.1400     0.7500     1.0420 hc         1 1P3       0.059700
     24 H7C2         6.0500    -0.3860     2.3940 hc         1 1P3       0.059700
     25 H7C3         6.2270     1.3460     2.7050 hc         1 1P3       0.059700
@<TRIPOS>BOND
     1     1     2 1   
     2     1    11 1   
     3     1    12 1   
     4     1    13 1   
     5     2     3 1   
     6     2     4 1   
     7     2    14 1   
     8     3     6 1   
     9     3    15 1   
    10     3    16 1   
    11     4     5 1   
    12     4    17 1   
    13     4    18 1   
    14     5     7 1   
    15     5    19 1   
    16     5    20 1   
    17     6     7 1   
    18     6     9 1   
    19     7    21 1   
    20     7    22 1   
    21     8     9 1   
    22     8    23 1   
    23     8    24 1   
    24     8    25 1   
    25     9    10 2   
@<TRIPOS>SUBSTRUCTURE
     1 1P3         1 TEMP              0 ****  ****    0 ROOT
