@<TRIPOS>MOLECULE
1P4
   62    64     1     0     0
SMALL
bcc


@<TRIPOS>ATOM
      1 OAA          1.7000    -0.6230     4.3680 oh         1 1P4      -0.606467
      2 CAG          1.5220     0.5690     3.6230 c3         1 1P4       0.128067
      3 CAJ          2.8140     1.0060     2.9510 c3         1 1P4      -0.116400
      4 CAM          3.0430     0.3540     1.5910 c3         1 1P4       0.042967
      5 NBC          2.9800    -1.1000     1.6020 na         1 1P4       0.073400
      6 CAD          3.9990    -1.9490     2.0440 cc         1 1P4      -0.147267
      7 NAV          1.8730    -1.8270     1.3080 nc         1 1P4      -0.129467
      8 NAS          2.0990    -3.0600     1.4910 nd         1 1P4      -0.359667
      9 CAY          3.4250    -3.2340     1.9670 cd         1 1P4       0.143933
     10 CAP          4.0430    -4.5450     2.2510 c3         1 1P4       0.123833
     11 NBB          3.0740    -5.5220     2.8560 nx         1 1P4      -0.684400
     12 CAR          2.5770    -5.0320     4.1920 c3         1 1P4       0.123833
     13 CBA          1.1980    -5.4730     4.4620 cc         1 1P4       0.143933
     14 CAF          0.0650    -4.6850     4.7650 cd         1 1P4      -0.147267
     15 NAU          0.7740    -6.8240     4.5020 nc         1 1P4      -0.359667
     16 NAX         -0.4590    -6.8730     4.7960 nd         1 1P4      -0.129467
     17 NBE         -0.9470    -5.6200     4.9800 na         1 1P4       0.073400
     18 CAO         -2.3250    -5.2930     5.3310 c3         1 1P4       0.042967
     19 CAL         -3.3220    -5.3960     4.1810 c3         1 1P4      -0.116400
     20 CAI         -3.8080    -6.8180     3.9610 c3         1 1P4       0.128067
     21 OAC         -4.4520    -7.2270     5.1580 oh         1 1P4      -0.606467
     22 CAQ          3.7020    -6.8900     2.9750 c3         1 1P4       0.123833
     23 CAZ          3.4640    -7.7130     1.7790 cc         1 1P4       0.143933
     24 CAE          2.7540    -8.9300     1.6700 cd         1 1P4      -0.147267
     25 NAT          3.9850    -7.4310     0.4900 nc         1 1P4      -0.359667
     26 NAW          3.6450    -8.3470    -0.3160 nd         1 1P4      -0.129467
     27 NBD          2.9150    -9.2940     0.3340 na         1 1P4       0.073400
     28 CAN          2.3210   -10.4650    -0.2960 c3         1 1P4       0.042967
     29 CAK          0.9550   -10.1970    -0.9190 c3         1 1P4      -0.116400
     30 CAH          0.4420   -11.4740    -1.5670 c3         1 1P4       0.128067
     31 OAB         -0.9050   -11.2210    -1.9260 oh         1 1P4      -0.606467
     32 H1           2.2070    -0.3920     5.1560 ho         1 1P4       0.410333
     33 H2           1.1450     1.3890     4.2910 h1         1 1P4       0.044533
     34 H3           0.7300     0.3170     2.8670 h1         1 1P4       0.044533
     35 H4           2.7850     2.1150     2.7780 hc         1 1P4       0.071867
     36 H5           3.6800     0.7900     3.6310 hc         1 1P4       0.071867
     37 H6           4.0650     0.6380     1.2080 h1         1 1P4       0.087533
     38 H7           2.2690     0.7330     0.8610 h1         1 1P4       0.087533
     39 H8           4.9880    -1.6010     2.3370 h4         1 1P4       0.211333
     40 H9           4.4310    -4.9990     1.2900 hx         1 1P4       0.110367
     41 H10          4.9020    -4.4140     2.9700 hx         1 1P4       0.110367
     42 H12          2.6040    -3.9020     4.1900 hx         1 1P4       0.110367
     43 H13          3.2860    -5.4100     4.9840 hx         1 1P4       0.110367
     44 H14         -0.0730    -3.6050     4.8420 h4         1 1P4       0.211333
     45 H15         -2.3110    -4.2360     5.7220 h1         1 1P4       0.087533
     46 H16         -2.6550    -5.9870     6.1600 h1         1 1P4       0.087533
     47 H17         -4.2020    -4.7540     4.4590 hc         1 1P4       0.071867
     48 H18         -2.8960    -5.0040     3.2230 hc         1 1P4       0.071867
     49 H19         -2.9540    -7.5090     3.7320 h1         1 1P4       0.044533
     50 H20         -4.5370    -6.8400     3.1060 h1         1 1P4       0.044533
     51 H21         -4.7970    -8.1140     5.0020 ho         1 1P4       0.410333
     52 H22          3.2570    -7.4120     3.8730 hx         1 1P4       0.110367
     53 H23          4.8080    -6.7480     3.1510 hx         1 1P4       0.110367
     54 H24          2.1980    -9.5190     2.4010 h4         1 1P4       0.211333
     55 H25          3.0310   -10.8360    -1.0910 h1         1 1P4       0.087533
     56 H26          2.2310   -11.2570     0.5020 h1         1 1P4       0.087533
     57 H27          1.0210    -9.3900    -1.6940 hc         1 1P4       0.071867
     58 H28          0.2210    -9.8580    -0.1420 hc         1 1P4       0.071867
     59 H29          0.4860   -12.3350    -0.8450 h1         1 1P4       0.044533
     60 H30          1.0510   -11.7290    -2.4760 h1         1 1P4       0.044533
     61 H31         -1.2040   -11.9800    -2.4420 ho         1 1P4       0.410333
     62 HBB1         2.2620    -5.5990     2.2220 hn         1 1P4       0.474800
@<TRIPOS>BOND
     1     1     2 1   
     2     1    32 1   
     3     2     3 1   
     4     2    33 1   
     5     2    34 1   
     6     3     4 1   
     7     3    35 1   
     8     3    36 1   
     9     4     5 1   
    10     4    37 1   
    11     4    38 1   
    12     5     6 1   
    13     5     7 1   
    14     6     9 2   
    15     6    39 1   
    16     7     8 2   
    17     8     9 1   
    18     9    10 1   
    19    10    11 1   
    20    10    40 1   
    21    10    41 1   
    22    11    12 1   
    23    11    22 1   
    24    11    62 1   
    25    12    13 1   
    26    12    42 1   
    27    12    43 1   
    28    13    14 2   
    29    13    15 1   
    30    14    17 1   
    31    14    44 1   
    32    15    16 2   
    33    16    17 1   
    34    17    18 1   
    35    18    19 1   
    36    18    45 1   
    37    18    46 1   
    38    19    20 1   
    39    19    47 1   
    40    19    48 1   
    41    20    21 1   
    42    20    49 1   
    43    20    50 1   
    44    21    51 1   
    45    22    23 1   
    46    22    52 1   
    47    22    53 1   
    48    23    24 2   
    49    23    25 1   
    50    24    27 1   
    51    24    54 1   
    52    25    26 2   
    53    26    27 1   
    54    27    28 1   
    55    28    29 1   
    56    28    55 1   
    57    28    56 1   
    58    29    30 1   
    59    29    57 1   
    60    29    58 1   
    61    30    31 1   
    62    30    59 1   
    63    30    60 1   
    64    31    61 1   
@<TRIPOS>SUBSTRUCTURE
     1 1P4         1 TEMP              0 ****  ****    0 ROOT
