@<TRIPOS>MOLECULE
1P4
   61    63     1     0     0
SMALL
bcc


@<TRIPOS>ATOM
      1 OAA          0.0000     0.0000     0.0000 oh         1 1P4      -0.585800
      2 CAG          1.4290     0.0000     0.0000 c3         1 1P4       0.232400
      3 CAJ          1.9390     0.0000     1.4420 c3         1 1P4      -0.056400
      4 CAM          3.4690    -0.0000     1.4420 c3         1 1P4      -0.024700
      5 NBC          3.9580    -0.0000     2.8230 na         1 1P4       0.587067
      6 CAD          4.8150    -0.8990     3.3610 cc         1 1P4      -0.435600
      7 NAV          3.6500     0.8580     3.7320 nc         1 1P4      -0.377800
      8 NAS          4.2500     0.5710     4.8330 nd         1 1P4      -0.320667
      9 CAY          4.9940    -0.5250     4.6500 cd         1 1P4       0.276933
     10 CAP          5.8630    -1.2070     5.6740 c3         1 1P4       0.133167
     11 NBB          7.1780    -0.5550     5.7120 n3         1 1P4      -0.539600
     12 CAR          7.0700     0.8230     6.2080 c3         1 1P4       0.133167
     13 CBA          8.3310     1.5770     5.8790 cc         1 1P4       0.276933
     14 CAF          8.5450     2.3670     4.8010 cd         1 1P4      -0.435600
     15 NAU          9.4600     1.6010     6.5960 nc         1 1P4      -0.320667
     16 NAX         10.3170     2.3530     6.0000 nd         1 1P4      -0.377800
     17 NBE          9.8100     2.8330     4.9190 na         1 1P4       0.587067
     18 CAO         10.4850     3.7310     3.9790 c3         1 1P4      -0.024700
     19 CAL         11.0000     4.9610     4.7300 c3         1 1P4      -0.056400
     20 CAI         11.7050     5.8990     3.7480 c3         1 1P4       0.232400
     21 OAC         12.1860     7.0480     4.4490 oh         1 1P4      -0.585800
     22 CAQ          8.1280    -1.3330     6.5200 c3         1 1P4       0.133167
     23 CAZ          8.5850    -2.5370     5.7380 cc         1 1P4       0.276933
     24 CAE          9.7040    -2.6360     4.9830 cd         1 1P4      -0.435600
     25 NAT          7.9680    -3.7210     5.6600 nc         1 1P4      -0.320667
     26 NAW          8.6550    -4.5000     4.9000 nd         1 1P4      -0.377800
     27 NBD          9.7040    -3.8890     4.4730 na         1 1P4       0.587067
     28 CAN         10.7250    -4.4550     3.5870 c3         1 1P4      -0.024700
     29 CAK         11.2710    -5.7470     4.1960 c3         1 1P4      -0.056400
     30 CAH         12.3360    -6.3380     3.2710 c3         1 1P4       0.232400
     31 OAB         12.8450    -7.5460     3.8400 oh         1 1P4      -0.585800
     32 H1          -0.3140     0.0000    -0.8890 ho         1 1P4       0.393000
     33 H2           1.7900     0.8850    -0.5110 h1         1 1P4      -0.016800
     34 H3           1.7900    -0.8850    -0.5110 h1         1 1P4      -0.016800
     35 H4           1.5770    -0.8840     1.9530 hc         1 1P4       0.044867
     36 H5           1.5780     0.8850     1.9530 hc         1 1P4       0.044867
     37 H6           3.8300     0.8840     0.9310 h1         1 1P4       0.035200
     38 H7           3.8300    -0.8850     0.9310 h1         1 1P4       0.035200
     39 H8           5.2650    -1.7480     2.8620 h4         1 1P4       0.163667
     40 H9           5.3960    -1.1350     6.6490 h1         1 1P4       0.034367
     41 H10          5.9840    -2.2500     5.4070 h1         1 1P4       0.034367
     42 H12          6.2250     1.3100     5.7370 h1         1 1P4       0.034367
     43 H13          6.9270     0.8100     7.2820 h1         1 1P4       0.034367
     44 H14          7.8440     2.5820     4.0030 h4         1 1P4       0.163667
     45 H15          9.7860     4.0430     3.2120 h1         1 1P4       0.035200
     46 H16         11.3180     3.2140     3.5200 h1         1 1P4       0.035200
     47 H17         11.6980     4.6490     5.4970 hc         1 1P4       0.044867
     48 H18         10.1660     5.4780     5.1890 hc         1 1P4       0.044867
     49 H19         11.0060     6.2110     2.9820 h1         1 1P4      -0.016800
     50 H20         12.5380     5.3820     3.2890 h1         1 1P4      -0.016800
     51 H21         12.6200     7.6260     3.8440 ho         1 1P4       0.393000
     52 H22          8.9830    -0.7150     6.7650 h1         1 1P4       0.034367
     53 H23          7.6440    -1.6580     7.4330 h1         1 1P4       0.034367
     54 H24         10.4470    -1.8650     4.8180 h4         1 1P4       0.163667
     55 H25         10.2860    -4.6680     2.6200 h1         1 1P4       0.035200
     56 H26         11.5330    -3.7430     3.4670 h1         1 1P4       0.035200
     57 H27         10.4630    -6.4590     4.3170 hc         1 1P4       0.044867
     58 H28         11.7110    -5.5330     5.1630 hc         1 1P4       0.044867
     59 H29         13.1440    -5.6270     3.1500 h1         1 1P4      -0.016800
     60 H30         11.8960    -6.5510     2.3040 h1         1 1P4      -0.016800
     61 H31         13.5020    -7.9100     3.2700 ho         1 1P4       0.393000
@<TRIPOS>BOND
     1     1     2 1   
     2     1    32 1   
     3     2     3 1   
     4     2    33 1   
     5     2    34 1   
     6     3     4 1   
     7     3    35 1   
     8     3    36 1   
     9     4     5 1   
    10     4    37 1   
    11     4    38 1   
    12     5     6 1   
    13     5     7 1   
    14     6     9 2   
    15     6    39 1   
    16     7     8 2   
    17     8     9 1   
    18     9    10 1   
    19    10    11 1   
    20    10    40 1   
    21    10    41 1   
    22    11    12 1   
    23    11    22 1   
    24    12    13 1   
    25    12    42 1   
    26    12    43 1   
    27    13    14 2   
    28    13    15 1   
    29    14    17 1   
    30    14    44 1   
    31    15    16 2   
    32    16    17 1   
    33    17    18 1   
    34    18    19 1   
    35    18    45 1   
    36    18    46 1   
    37    19    20 1   
    38    19    47 1   
    39    19    48 1   
    40    20    21 1   
    41    20    49 1   
    42    20    50 1   
    43    21    51 1   
    44    22    23 1   
    45    22    52 1   
    46    22    53 1   
    47    23    24 2   
    48    23    25 1   
    49    24    27 1   
    50    24    54 1   
    51    25    26 2   
    52    26    27 1   
    53    27    28 1   
    54    28    29 1   
    55    28    55 1   
    56    28    56 1   
    57    29    30 1   
    58    29    57 1   
    59    29    58 1   
    60    30    31 1   
    61    30    59 1   
    62    30    60 1   
    63    31    61 1   
@<TRIPOS>SUBSTRUCTURE
     1 1P4         1 TEMP              0 ****  ****    0 ROOT
