@<TRIPOS>MOLECULE
molecule
   61    63     1     0     0
SMALL
bcc


@<TRIPOS>ATOM
      1 OAA          0.0000     0.0000     0.0000 oh         1 1P4      -0.602800
      2 CAG          1.4290     0.0000     0.0000 c3         1 1P4       0.143400
      3 CAJ          1.9390     0.0000     1.4420 c3         1 1P4      -0.101400
      4 CAM          3.4690    -0.0000     1.4420 c3         1 1P4       0.060633
      5 NBC          3.9580    -0.0000     2.8230 na         1 1P4       0.122067
      6 CAD          4.8150    -0.8990     3.3610 cc         1 1P4      -0.272600
      7 NAV          3.6500     0.8580     3.7320 nc         1 1P4      -0.207467
      8 NAS          4.2500     0.5710     4.8330 nd         1 1P4      -0.372667
      9 CAY          4.9940    -0.5250     4.6500 cd         1 1P4       0.284267
     10 CAP          5.8630    -1.2070     5.6740 c3         1 1P4       0.144833
     11 NBB          7.1780    -0.5550     5.7120 n3         1 1P4      -0.731600
     12 CAR          7.0700     0.8230     6.2080 c3         1 1P4       0.144833
     13 CBA          8.3310     1.5770     5.8790 cc         1 1P4       0.284267
     14 CAF          8.5450     2.3670     4.8010 cd         1 1P4      -0.272600
     15 NAU          9.4600     1.6010     6.5960 nc         1 1P4      -0.372667
     16 NAX         10.3170     2.3530     6.0000 nd         1 1P4      -0.207467
     17 NBE          9.8100     2.8330     4.9190 na         1 1P4       0.122067
     18 CAO         10.4850     3.7310     3.9790 c3         1 1P4       0.060633
     19 CAL         11.0000     4.9610     4.7300 c3         1 1P4      -0.101400
     20 CAI         11.7050     5.8990     3.7480 c3         1 1P4       0.143400
     21 OAC         12.1860     7.0480     4.4490 oh         1 1P4      -0.602800
     22 CAQ          8.1280    -1.3330     6.5200 c3         1 1P4       0.144833
     23 CAZ          8.5850    -2.5370     5.7380 cd         1 1P4       0.284267
     24 CAE          9.7040    -2.6360     4.9830 cc         1 1P4      -0.272600
     25 NAT          7.9680    -3.7210     5.6600 nd         1 1P4      -0.372667
     26 NAW          8.6550    -4.5000     4.9000 nc         1 1P4      -0.207467
     27 NBD          9.7040    -3.8890     4.4730 na         1 1P4       0.122067
     28 CAN         10.7250    -4.4550     3.5870 c3         1 1P4       0.060633
     29 CAK         11.2710    -5.7470     4.1960 c3         1 1P4      -0.101400
     30 CAH         12.3360    -6.3380     3.2710 c3         1 1P4       0.143400
     31 OAB         12.8450    -7.5460     3.8400 oh         1 1P4      -0.602800
     32 H1          -0.3140     0.0000    -0.8890 ho         1 1P4       0.406000
     33 H2           1.7900     0.8850    -0.5110 h1         1 1P4       0.019200
     34 H3           1.7900    -0.8850    -0.5110 h1         1 1P4       0.019200
     35 H4           1.5770    -0.8840     1.9530 hc         1 1P4       0.078200
     36 H5           1.5780     0.8850     1.9530 hc         1 1P4       0.078200
     37 H6           3.8300     0.8840     0.9310 h1         1 1P4       0.065200
     38 H7           3.8300    -0.8850     0.9310 h1         1 1P4       0.065200
     39 H8           5.2650    -1.7480     2.8620 h4         1 1P4       0.185667
     40 H9           5.3960    -1.1350     6.6490 h1         1 1P4       0.063867
     41 H10          5.9840    -2.2500     5.4070 h1         1 1P4       0.063867
     42 H12          6.2250     1.3100     5.7370 h1         1 1P4       0.063867
     43 H13          6.9270     0.8100     7.2820 h1         1 1P4       0.063867
     44 H14          7.8440     2.5820     4.0030 h4         1 1P4       0.185667
     45 H15          9.7860     4.0430     3.2120 h1         1 1P4       0.065200
     46 H16         11.3180     3.2140     3.5200 h1         1 1P4       0.065200
     47 H17         11.6980     4.6490     5.4970 hc         1 1P4       0.078200
     48 H18         10.1660     5.4780     5.1890 hc         1 1P4       0.078200
     49 H19         11.0060     6.2110     2.9820 h1         1 1P4       0.019200
     50 H20         12.5380     5.3820     3.2890 h1         1 1P4       0.019200
     51 H21         12.6200     7.6260     3.8440 ho         1 1P4       0.406000
     52 H22          8.9830    -0.7150     6.7650 h1         1 1P4       0.063867
     53 H23          7.6440    -1.6580     7.4330 h1         1 1P4       0.063867
     54 H24         10.4470    -1.8650     4.8180 h4         1 1P4       0.185667
     55 H25         10.2860    -4.6680     2.6200 h1         1 1P4       0.065200
     56 H26         11.5330    -3.7430     3.4670 h1         1 1P4       0.065200
     57 H27         10.4630    -6.4590     4.3170 hc         1 1P4       0.078200
     58 H28         11.7110    -5.5330     5.1630 hc         1 1P4       0.078200
     59 H29         13.1440    -5.6270     3.1500 h1         1 1P4       0.019200
     60 H30         11.8960    -6.5510     2.3040 h1         1 1P4       0.019200
     61 H31         13.5020    -7.9100     3.2700 ho         1 1P4       0.406000
@<TRIPOS>BOND
     1     4     5 1   
     2     4     3 1   
     3     5     6 1   
     4     5     7 1   
     5     6     9 2   
     6     2     3 1   
     7     2     1 1   
     8    26    25 2   
     9    26    27 1   
    10     7     8 2   
    11    25    23 1   
    12     9    10 1   
    13     9     8 1   
    14    10    11 1   
    15    27    28 1   
    16    27    24 1   
    17    28    29 1   
    18    23    22 1   
    19    23    24 2   
    20    11    22 1   
    21    11    12 1   
    22    29    30 1   
    23    12    13 1   
    24    30    31 1   
    25    13    15 1   
    26    13    14 2   
    27    15    16 2   
    28    16    17 1   
    29    14    17 1   
    30    17    18 1   
    31    18    19 1   
    32    20    19 1   
    33    20    21 1   
    34     1    32 1   
    35     2    33 1   
    36     2    34 1   
    37     3    35 1   
    38     3    36 1   
    39     4    37 1   
    40     4    38 1   
    41     6    39 1   
    42    10    40 1   
    43    10    41 1   
    44    12    42 1   
    45    12    43 1   
    46    14    44 1   
    47    18    45 1   
    48    18    46 1   
    49    19    47 1   
    50    19    48 1   
    51    20    49 1   
    52    20    50 1   
    53    21    51 1   
    54    22    52 1   
    55    22    53 1   
    56    24    54 1   
    57    28    55 1   
    58    28    56 1   
    59    29    57 1   
    60    29    58 1   
    61    30    59 1   
    62    30    60 1   
    63    31    61 1   
@<TRIPOS>SUBSTRUCTURE
     1 1P4         1 TEMP              0 ****  ****    0 ROOT
