@<TRIPOS>MOLECULE
molecule
   55    58     1     0     0
SMALL
bcc


@<TRIPOS>ATOM
      1 N3           0.0000     0.0000     0.0000 n          1 1P5      -0.500800
      2 C4           1.4650     0.0000     0.0000 c3         1 1P5       0.101000
      3 C5           1.9760     0.0000     1.4420 c3         1 1P5      -0.115100
      4 C6          -0.6740     1.1640     0.0890 c          1 1P5       0.662100
      5 C8           0.0780     2.4710     0.0980 c3         1 1P5      -0.151700
      6 C10          0.6110     2.7650    -1.3060 c3         1 1P5      -0.080400
      7 C15         -2.9170     4.6230     0.0020 ca         1 1P5       0.654200
      8 C17         -4.9760     5.8100    -0.2770 ca         1 1P5       0.584100
      9 C21         -6.2030     6.1120    -1.0380 cc         1 1P5      -0.401400
     10 C22         -6.5390     5.6210    -2.3080 cd         1 1P5       0.416500
     11 C24         -6.4420     4.4840    -4.3110 cc         1 1P5       0.467200
     12 C26         -8.3360     5.8440    -3.8260 cd         1 1P5       0.025700
     13 C1          -0.9870    -1.8200     1.3010 c3         1 1P5      -0.115100
     14 C2          -0.7320    -1.2630    -0.1020 c3         1 1P5       0.101000
     15 O7          -1.8840     1.1610     0.1600 o          1 1P5      -0.573100
     16 C11         -0.5700     2.9130    -2.2710 c3         1 1P5      -0.084400
     17 C12         -1.4920     4.0270    -1.7740 c3         1 1P5       0.172800
     18 N13         -1.9760     3.6990    -0.4260 nh         1 1P5      -0.669300
     19 C14         -0.8650     3.5980     0.5270 c3         1 1P5       0.194800
     20 C16         -4.0590     4.8700    -0.7540 ca         1 1P5      -0.387600
     21 N18         -4.7220     6.4310     0.8790 nb         1 1P5      -0.766000
     22 C19         -3.6320     6.1620     1.5650 ca         1 1P5       0.699900
     23 N20         -2.7430     5.2820     1.1470 nb         1 1P5      -0.811000
     24 N23         -5.9080     4.7990    -3.1520 nd         1 1P5      -0.675000
     25 C25         -7.6880     5.0090    -4.6770 cc         1 1P5      -0.330300
     26 N27         -7.7580     6.1540    -2.6310 na         1 1P5       0.052200
     27 N28         -8.1720     6.9670    -1.5700 nd         1 1P5      -0.599100
     28 C29         -7.2610     6.9430    -0.6230 cc         1 1P5       0.693500
     29 N30         -7.3290     7.6290     0.5890 nv         1 1P5      -1.003800
     30 H4           1.8260    -0.8850    -0.5110 h1         1 1P5       0.052200
     31 H4A          1.8260     0.8840    -0.5110 h1         1 1P5       0.052200
     32 H5           2.2910    -1.0000     1.7130 hc         1 1P5       0.041200
     33 H5A          1.1820     0.3220     2.1060 hc         1 1P5       0.041200
     34 H5B          2.8160     0.6790     1.5270 hc         1 1P5       0.041200
     35 H8           0.9070     2.4120     0.7920 hc         1 1P5       0.066700
     36 H10          1.2430     1.9470    -1.6310 hc         1 1P5       0.046700
     37 H10A         1.1810     3.6860    -1.2900 hc         1 1P5       0.046700
     38 H24         -5.9180     3.8170    -4.9850 h4         1 1P5       0.037100
     39 H26         -9.3010     6.2590    -4.0930 h4         1 1P5       0.179000
     40 H1          -1.8480    -2.4760     1.2780 hc         1 1P5       0.041200
     41 H1A         -1.1740    -1.0020     1.9860 hc         1 1P5       0.041200
     42 H1B         -0.1180    -2.3760     1.6320 hc         1 1P5       0.041200
     43 H2          -0.1470    -1.9750    -0.6720 h1         1 1P5       0.052200
     44 H2A         -1.6790    -1.0930    -0.6000 h1         1 1P5       0.052200
     45 H11         -0.2000     3.1640    -3.2580 hc         1 1P5       0.056200
     46 H11A        -1.1200     1.9810    -2.3120 hc         1 1P5       0.056200
     47 H12         -0.9430     4.9600    -1.7410 h1         1 1P5       0.046700
     48 H12A        -2.3360     4.1220    -2.4460 h1         1 1P5       0.046700
     49 H14         -0.3200     4.5350     0.5450 h1         1 1P5       0.060700
     50 H14A        -1.2560     3.3840     1.5140 h1         1 1P5       0.060700
     51 H16         -4.3470     4.1820    -1.5400 ha         1 1P5       0.176000
     52 H19         -3.4570     6.6810     2.4990 h5         1 1P5       0.050100
     53 H25         -8.1300     4.7520    -5.6320 ha         1 1P5       0.160000
     54 HN30        -7.0060     8.5750     0.6470 hn         1 1P5       0.445800
     55 HN3A        -7.7450     7.1920     1.3880 hn         1 1P5       0.445800
@<TRIPOS>BOND
     1     1     2 1   
     2     1     4 1   
     3     1    14 1   
     4     2     3 1   
     5     4     5 1   
     6     4    15 2   
     7     5     6 1   
     8     5    19 1   
     9     6    16 1   
    10     7    18 1   
    11     7    20 ar  
    12     7    23 ar  
    13     8     9 1   
    14     8    20 ar  
    15     8    21 ar  
    16     9    10 2   
    17     9    28 1   
    18    10    24 1   
    19    10    26 1   
    20    11    24 2   
    21    11    25 1   
    22    12    25 2   
    23    12    26 1   
    24    13    14 1   
    25    16    17 1   
    26    17    18 1   
    27    18    19 1   
    28    21    22 ar  
    29    22    23 ar  
    30    26    27 1   
    31    27    28 2   
    32    28    29 1   
    33     2    30 1   
    34     2    31 1   
    35     3    32 1   
    36     3    33 1   
    37     3    34 1   
    38     5    35 1   
    39     6    36 1   
    40     6    37 1   
    41    11    38 1   
    42    12    39 1   
    43    13    40 1   
    44    13    41 1   
    45    13    42 1   
    46    14    43 1   
    47    14    44 1   
    48    16    45 1   
    49    16    46 1   
    50    17    47 1   
    51    17    48 1   
    52    19    49 1   
    53    19    50 1   
    54    20    51 1   
    55    22    52 1   
    56    25    53 1   
    57    29    54 1   
    58    29    55 1   
@<TRIPOS>SUBSTRUCTURE
     1 1P5         1 TEMP              0 ****  ****    0 ROOT
