@<TRIPOS>MOLECULE
1P5
   55    58     1     0     0
SMALL
bcc


@<TRIPOS>ATOM
      1 N3           0.0000     0.0000     0.0000 n          1 1P5      -0.165800
      2 C4           1.4650     0.0000     0.0000 c3         1 1P5       0.042000
      3 C5           1.9760     0.0000     1.4420 c3         1 1P5      -0.021600
      4 C6          -0.6740     1.1640     0.0890 c          1 1P5       0.591100
      5 C8           0.0780     2.4710     0.0980 c3         1 1P5      -0.133700
      6 C10          0.6110     2.7650    -1.3060 c3         1 1P5      -0.029400
      7 C15         -2.9170     4.6230     0.0020 ca         1 1P5       0.532200
      8 C17         -4.9760     5.8100    -0.2770 ca         1 1P5       0.562100
      9 C21         -6.2030     6.1120    -1.0380 cc         1 1P5      -0.424400
     10 C22         -6.5390     5.6210    -2.3080 cd         1 1P5       0.199500
     11 C24         -6.4420     4.4840    -4.3110 cc         1 1P5       0.419200
     12 C26         -8.3360     5.8440    -3.8260 cd         1 1P5      -0.160300
     13 C1          -0.9870    -1.8200     1.3010 c3         1 1P5      -0.021600
     14 C2          -0.7320    -1.2630    -0.1020 c3         1 1P5       0.042000
     15 O7          -1.8840     1.1610     0.1600 o          1 1P5      -0.616100
     16 C11         -0.5700     2.9130    -2.2710 c3         1 1P5      -0.032400
     17 C12         -1.4920     4.0270    -1.7740 c3         1 1P5       0.140800
     18 N13         -1.9760     3.6990    -0.4260 nh         1 1P5      -0.420300
     19 C14         -0.8650     3.5980     0.5270 c3         1 1P5       0.161800
     20 C16         -4.0590     4.8700    -0.7540 ca         1 1P5      -0.380600
     21 N18         -4.7220     6.4310     0.8790 nb         1 1P5      -0.673000
     22 C19         -3.6320     6.1620     1.5650 ca         1 1P5       0.658900
     23 N20         -2.7430     5.2820     1.1470 nb         1 1P5      -0.705000
     24 N23         -5.9080     4.7990    -3.1520 nd         1 1P5      -0.537000
     25 C25         -7.6880     5.0090    -4.6770 cc         1 1P5      -0.257300
     26 N27         -7.7580     6.1540    -2.6310 na         1 1P5       0.561200
     27 N28         -8.1720     6.9670    -1.5700 nd         1 1P5      -0.760100
     28 C29         -7.2610     6.9430    -0.6230 cc         1 1P5       0.592500
     29 N30         -7.3290     7.6290     0.5890 nv         1 1P5      -0.564800
     30 H4           1.8260    -0.8850    -0.5110 h1         1 1P5       0.028200
     31 H4A          1.8260     0.8840    -0.5110 h1         1 1P5       0.028200
     32 H5           2.2910    -1.0000     1.7130 hc         1 1P5       0.009867
     33 H5A          1.1820     0.3220     2.1060 hc         1 1P5       0.009867
     34 H5B          2.8160     0.6790     1.5270 hc         1 1P5       0.009867
     35 H8           0.9070     2.4120     0.7920 hc         1 1P5       0.043700
     36 H10          1.2430     1.9470    -1.6310 hc         1 1P5       0.020700
     37 H10A         1.1810     3.6860    -1.2900 hc         1 1P5       0.020700
     38 H24         -5.9180     3.8170    -4.9850 h4         1 1P5      -0.008900
     39 H26         -9.3010     6.2590    -4.0930 h4         1 1P5       0.146000
     40 H1          -1.8480    -2.4760     1.2780 hc         1 1P5       0.009867
     41 H1A         -1.1740    -1.0020     1.9860 hc         1 1P5       0.009867
     42 H1B         -0.1180    -2.3760     1.6320 hc         1 1P5       0.009867
     43 H2          -0.1470    -1.9750    -0.6720 h1         1 1P5       0.028200
     44 H2A         -1.6790    -1.0930    -0.6000 h1         1 1P5       0.028200
     45 H11         -0.2000     3.1640    -3.2580 hc         1 1P5       0.025700
     46 H11A        -1.1200     1.9810    -2.3120 hc         1 1P5       0.025700
     47 H12         -0.9430     4.9600    -1.7410 h1         1 1P5       0.020700
     48 H12A        -2.3360     4.1220    -2.4460 h1         1 1P5       0.020700
     49 H14         -0.3200     4.5350     0.5450 h1         1 1P5       0.032200
     50 H14A        -1.2560     3.3840     1.5140 h1         1 1P5       0.032200
     51 H16         -4.3470     4.1820    -1.5400 ha         1 1P5       0.160000
     52 H19         -3.4570     6.6810     2.4990 h5         1 1P5      -0.007900
     53 H25         -8.1300     4.7520    -5.6320 ha         1 1P5       0.130000
     54 HN30        -7.0060     8.5750     0.6470 hn         1 1P5       0.280300
     55 HN3A        -7.7450     7.1920     1.3880 hn         1 1P5       0.280300
@<TRIPOS>BOND
     1     1     2 1   
     2     1     4 1   
     3     1    14 1   
     4     2     3 1   
     5     2    30 1   
     6     2    31 1   
     7     3    32 1   
     8     3    33 1   
     9     3    34 1   
    10     4     5 1   
    11     4    15 2   
    12     5     6 1   
    13     5    19 1   
    14     5    35 1   
    15     6    16 1   
    16     6    36 1   
    17     6    37 1   
    18     7    18 1   
    19     7    20 ar  
    20     7    23 ar  
    21     8     9 1   
    22     8    20 ar  
    23     8    21 ar  
    24     9    10 2   
    25     9    28 1   
    26    10    24 1   
    27    10    26 1   
    28    11    24 2   
    29    11    25 1   
    30    11    38 1   
    31    12    25 2   
    32    12    26 1   
    33    12    39 1   
    34    13    14 1   
    35    13    40 1   
    36    13    41 1   
    37    13    42 1   
    38    14    43 1   
    39    14    44 1   
    40    16    17 1   
    41    16    45 1   
    42    16    46 1   
    43    17    18 1   
    44    17    47 1   
    45    17    48 1   
    46    18    19 1   
    47    19    49 1   
    48    19    50 1   
    49    20    51 1   
    50    21    22 ar  
    51    22    23 ar  
    52    22    52 1   
    53    25    53 1   
    54    26    27 1   
    55    27    28 2   
    56    28    29 1   
    57    29    54 1   
    58    29    55 1   
@<TRIPOS>SUBSTRUCTURE
     1 1P5         1 TEMP              0 ****  ****    0 ROOT
