@<TRIPOS>MOLECULE
1P5
   56    59     1     0     0
SMALL
bcc


@<TRIPOS>ATOM
      1 N3           0.2920    -0.0910     0.4050 nx         1 1P5      -0.608200
      2 C4           0.5740     0.9580    -0.6300 c3         1 1P5       0.112800
      3 C5           2.0040     1.4510    -0.6230 c3         1 1P5      -0.136600
      4 C6          -0.9860    -0.8470     0.0420 c          1 1P5       0.556100
      5 C8          -0.8470    -2.3430    -0.0300 c3         1 1P5      -0.174700
      6 C10         -2.2150    -3.0210    -0.0330 c3         1 1P5      -0.078400
      7 C15          1.5790    -4.5210    -1.0910 ca         1 1P5       0.626200
      8 C17          3.9600    -4.2630    -1.5530 ca         1 1P5       0.593100
      9 C21          5.0450    -3.5870    -2.2150 cc         1 1P5      -0.427400
     10 C22          5.0980    -2.2260    -2.6240 cd         1 1P5       0.415500
     11 C24          4.6000    -0.0120    -2.9990 cc         1 1P5       0.439200
     12 C26          6.7520    -0.8340    -3.7510 cd         1 1P5       0.025700
     13 C1           0.2240    -0.5250     2.8820 c3         1 1P5      -0.136600
     14 C2           0.1660     0.5060     1.7750 c3         1 1P5       0.112800
     15 O7          -1.9760    -0.1600    -0.1500 o          1 1P5      -0.413100
     16 C11         -2.1960    -4.3100    -0.8340 c3         1 1P5      -0.093400
     17 C12         -0.8300    -4.9900    -0.8070 c3         1 1P5       0.177800
     18 N13          0.2280    -4.1540    -1.3690 nh         1 1P5      -0.723300
     19 C14         -0.0590    -2.7380    -1.3040 c3         1 1P5       0.194800
     20 C16          2.6250    -3.8510    -1.7870 ca         1 1P5      -0.392600
     21 N18          4.2340    -5.3040    -0.7110 nb         1 1P5      -0.739000
     22 C19          3.1680    -5.8860    -0.1150 ca         1 1P5       0.671900
     23 N20          1.8600    -5.5510    -0.2300 nb         1 1P5      -0.750000
     24 N23          4.2140    -1.1830    -2.4980 nd         1 1P5      -0.699000
     25 C25          5.8520     0.2160    -3.6380 cc         1 1P5      -0.321300
     26 N27          6.4010    -2.0650    -3.2470 na         1 1P5       0.081200
     27 N28          7.1290    -3.1950    -3.2350 nd         1 1P5      -0.639100
     28 C29          6.3360    -4.1600    -2.6130 cc         1 1P5       0.675500
     29 N30          6.7010    -5.4690    -2.4900 nv         1 1P5      -0.883800
     30 H4           0.3420     0.4970    -1.6360 hx         1 1P5       0.107200
     31 H4A         -0.1450     1.8090    -0.4570 hx         1 1P5       0.107200
     32 H5           2.7320     0.6180    -0.7900 hc         1 1P5       0.078033
     33 H5A          2.2640     1.9740     0.3290 hc         1 1P5       0.078033
     34 H5B          2.1160     2.1840    -1.4630 hc         1 1P5       0.078033
     35 H8          -0.2770    -2.6920     0.8820 hc         1 1P5       0.097700
     36 H10         -2.9920    -2.3330    -0.4620 hc         1 1P5       0.071200
     37 H10A        -2.5110    -3.2350     1.0280 hc         1 1P5       0.071200
     38 H24          3.8790     0.8210    -2.8980 h4         1 1P5       0.016100
     39 H26          7.7460    -0.7370    -4.2280 h4         1 1P5       0.198000
     40 H1           0.1330     0.0140     3.8600 hc         1 1P5       0.078033
     41 H1A         -0.6170    -1.2580     2.8100 hc         1 1P5       0.078033
     42 H1B          1.1930    -1.0820     2.8810 hc         1 1P5       0.078033
     43 H2          -0.8140     1.0670     1.8080 hx         1 1P5       0.107200
     44 H2A          1.0070     1.2480     1.9020 hx         1 1P5       0.107200
     45 H11         -2.9480    -5.0240    -0.4060 hc         1 1P5       0.074700
     46 H11A        -2.5000    -4.1030    -1.8940 hc         1 1P5       0.074700
     47 H12         -0.6130    -5.2880     0.2600 h1         1 1P5       0.075200
     48 H12A        -0.8590    -5.9280    -1.4310 h1         1 1P5       0.075200
     49 H14          0.8870    -2.1340    -1.3730 h1         1 1P5       0.067200
     50 H14A        -0.7010    -2.4920    -2.2000 h1         1 1P5       0.067200
     51 H16          2.4130    -3.0740    -2.5310 ha         1 1P5       0.166000
     52 H19          3.3890    -6.7390     0.5640 h5         1 1P5       0.063100
     53 H25          6.1060     1.2060    -4.0380 ha         1 1P5       0.173000
     54 HN30         7.6380    -5.7230    -2.7000 hn         1 1P5       0.448800
     55 HN3A         6.2080    -6.0340    -1.8400 hn         1 1P5       0.448800
     56 H31          1.0740    -0.7590     0.4130 hn         1 1P5       0.453800
@<TRIPOS>BOND
     1     1     2 1   
     2     1     4 1   
     3     1    14 1   
     4     1    56 1   
     5     2     3 1   
     6     2    30 1   
     7     2    31 1   
     8     3    32 1   
     9     3    33 1   
    10     3    34 1   
    11     4     5 1   
    12     4    15 2   
    13     5     6 1   
    14     5    19 1   
    15     5    35 1   
    16     6    16 1   
    17     6    36 1   
    18     6    37 1   
    19     7    18 1   
    20     7    20 ar  
    21     7    23 ar  
    22     8     9 1   
    23     8    20 ar  
    24     8    21 ar  
    25     9    10 2   
    26     9    28 1   
    27    10    24 1   
    28    10    26 1   
    29    11    24 2   
    30    11    25 1   
    31    11    38 1   
    32    12    25 2   
    33    12    26 1   
    34    12    39 1   
    35    13    14 1   
    36    13    40 1   
    37    13    41 1   
    38    13    42 1   
    39    14    43 1   
    40    14    44 1   
    41    16    17 1   
    42    16    45 1   
    43    16    46 1   
    44    17    18 1   
    45    17    47 1   
    46    17    48 1   
    47    18    19 1   
    48    19    49 1   
    49    19    50 1   
    50    20    51 1   
    51    21    22 ar  
    52    22    23 ar  
    53    22    52 1   
    54    25    53 1   
    55    26    27 1   
    56    27    28 2   
    57    28    29 1   
    58    29    54 1   
    59    29    55 1   
@<TRIPOS>SUBSTRUCTURE
     1 1P5         1 TEMP              0 ****  ****    0 ROOT
