@<TRIPOS>MOLECULE
1P6
   42    45     1     0     0
SMALL
bcc


@<TRIPOS>ATOM
      1 C1           0.5110    -0.4520    -0.3220 c3         1 1P6      -0.092100
      2 C2           1.8460     0.2910    -0.1890 c3         1 1P6       0.240800
      3 N4           2.3510     0.2020     1.1750 nu         1 1P6      -0.816900
      4 C5           3.7250     0.4340     1.3980 ca         1 1P6       0.655200
      5 N6           4.0990     1.1860     2.4890 nb         1 1P6      -0.760000
      6 C7           5.4290     1.2720     2.7190 ca         1 1P6       0.665900
      7 N8           6.4410     0.7360     1.9980 nb         1 1P6      -0.760000
      8 C9           6.0730     0.0010     0.9050 ca         1 1P6       0.578100
      9 C10          4.7130    -0.1870     0.5770 ca         1 1P6      -0.381600
     10 C11          7.1040    -0.5890     0.0820 cc         1 1P6      -0.397400
     11 C12          7.0510    -0.8560    -1.3110 cd         1 1P6       0.408500
     12 N13          6.0710    -0.6670    -2.2590 nd         1 1P6      -0.655000
     13 C14          6.3660    -1.0180    -3.5030 cc         1 1P6       0.442200
     14 C15          7.6220    -1.5720    -3.9040 cc         1 1P6      -0.325300
     15 C16          8.6100    -1.7600    -2.9540 cd         1 1P6       0.011700
     16 N17          8.3530    -1.4070    -1.6460 na         1 1P6       0.065200
     17 N18          9.1710    -1.4900    -0.5840 nd         1 1P6      -0.644100
     18 C19          8.4450    -1.0050     0.5000 cc         1 1P6       0.644500
     19 N20          8.9080    -1.0270     1.7950 nv         1 1P6      -0.873800
     20 C21          1.6690     1.7090    -0.6850 ca         1 1P6      -0.138300
     21 C22          0.7920     2.5870    -0.0390 ca         1 1P6      -0.091500
     22 C23          0.6200     3.8880    -0.4990 ca         1 1P6      -0.165000
     23 C24          1.3410     4.3220    -1.6280 ca         1 1P6       0.129900
     24 F25          1.1800     5.5860    -2.0860 f          1 1P6      -0.140900
     25 C26          2.2290     3.4470    -2.2800 ca         1 1P6      -0.165000
     26 C27          2.3870     2.1500    -1.8010 ca         1 1P6      -0.091500
     27 H1           0.1790    -0.4020    -1.3860 hc         1 1P6       0.046367
     28 H1A         -0.2760     0.0130     0.3200 hc         1 1P6       0.046367
     29 H1B          0.6280    -1.5220    -0.0270 hc         1 1P6       0.046367
     30 H2           2.5890    -0.2300    -0.8670 h1         1 1P6       0.076700
     31 HN4          1.7530     0.6780     1.8250 hn         1 1P6       0.406800
     32 H7           5.7250     1.8700     3.6070 h5         1 1P6       0.047100
     33 H10          4.4310    -0.8180    -0.2730 ha         1 1P6       0.167000
     34 H14          5.5710    -0.8610    -4.2550 h4         1 1P6       0.032100
     35 H15          7.8000    -1.8440    -4.9510 ha         1 1P6       0.164000
     36 H16          9.6050    -2.1810    -3.1830 h4         1 1P6       0.183000
     37 HN20         9.8880    -1.1420     1.9180 hn         1 1P6       0.430800
     38 HN2A         8.4640    -0.4020     2.4290 hn         1 1P6       0.430800
     39 H22          0.2260     2.2480     0.8430 ha         1 1P6       0.141000
     40 H23         -0.0670     4.5800     0.0070 ha         1 1P6       0.149500
     41 H26          2.7920     3.7960    -3.1570 ha         1 1P6       0.149500
     42 H27          3.0910     1.4700    -2.3070 ha         1 1P6       0.141000
@<TRIPOS>BOND
     1     1     2 1   
     2     1    27 1   
     3     1    28 1   
     4     1    29 1   
     5     2     3 1   
     6     2    20 1   
     7     2    30 1   
     8     3     4 1   
     9     3    31 1   
    10     4     5 ar  
    11     4     9 ar  
    12     5     6 ar  
    13     6     7 ar  
    14     6    32 1   
    15     7     8 ar  
    16     8     9 ar  
    17     8    10 1   
    18     9    33 1   
    19    10    11 2   
    20    10    18 1   
    21    11    12 1   
    22    11    16 1   
    23    12    13 2   
    24    13    14 1   
    25    13    34 1   
    26    14    15 2   
    27    14    35 1   
    28    15    16 1   
    29    15    36 1   
    30    16    17 1   
    31    17    18 2   
    32    18    19 1   
    33    19    37 1   
    34    19    38 1   
    35    20    21 ar  
    36    20    26 ar  
    37    21    22 ar  
    38    21    39 1   
    39    22    23 ar  
    40    22    40 1   
    41    23    24 1   
    42    23    25 ar  
    43    25    26 ar  
    44    25    41 1   
    45    26    42 1   
@<TRIPOS>SUBSTRUCTURE
     1 1P6         1 TEMP              0 ****  ****    0 ROOT
