@<TRIPOS>MOLECULE
1P6
   42    45     1     0     0
SMALL
bcc


@<TRIPOS>ATOM
      1 C1           0.0000     0.0000     0.0000 c3         1 1P6      -0.023100
      2 C2           1.5290     0.0000     0.0000 c3         1 1P6       0.190800
      3 N4           2.0180     0.0000     1.3810 nu         1 1P6      -0.507900
      4 C5           2.1500    -1.1970     2.0700 ca         1 1P6       0.558200
      5 N6           2.5930    -1.2080     3.3260 nb         1 1P6      -0.726000
      6 C7           2.7240    -2.3400     3.9890 ca         1 1P6       0.684900
      7 N8           2.4260    -3.5030     3.4500 nb         1 1P6      -0.731000
      8 C9           1.9750    -3.5790     2.1940 ca         1 1P6       0.601100
      9 C10          1.8180    -2.4020     1.4600 ca         1 1P6      -0.452600
     10 C11          1.6440    -4.8870     1.5950 cc         1 1P6      -0.478400
     11 C12          1.0660    -5.1050     0.3350 cd         1 1P6       0.229500
     12 N13          0.6710    -4.2710    -0.6300 nd         1 1P6      -0.563000
     13 C14          0.1460    -4.7300    -1.7450 cc         1 1P6       0.428200
     14 C15         -0.0040    -6.1090    -1.9350 cc         1 1P6      -0.276300
     15 C16          0.3950    -6.9640    -0.9590 cd         1 1P6      -0.155300
     16 N17          0.9350    -6.4590     0.1870 na         1 1P6       0.582200
     17 N18          1.4280    -7.0740     1.3430 nd         1 1P6      -0.833100
     18 C19          1.8540    -6.1510     2.1770 cc         1 1P6       0.588500
     19 N20          2.4160    -6.3850     3.4320 nv         1 1P6      -0.453800
     20 C21          2.0320     1.2320    -0.7100 ca         1 1P6      -0.116300
     21 C22          2.4580     1.1460    -2.0220 ca         1 1P6      -0.067500
     22 C23          2.9180     2.2740    -2.6730 ca         1 1P6      -0.128000
     23 C24          2.9530     3.4900    -2.0130 ca         1 1P6       0.107900
     24 F25          3.4030     4.5930    -2.6490 f          1 1P6      -0.126900
     25 C26          2.5260     3.5740    -0.6980 ca         1 1P6      -0.128000
     26 C27          2.0600     2.4460    -0.0500 ca         1 1P6      -0.067500
     27 H1          -0.3610    -0.7440    -0.7000 hc         1 1P6       0.016367
     28 H1A         -0.3610    -0.2340     0.9940 hc         1 1P6       0.016367
     29 H1B         -0.3610     0.9780    -0.2940 hc         1 1P6       0.016367
     30 H2           1.8910    -0.8840    -0.5110 h1         1 1P6       0.050700
     31 HN4          2.2880     0.8600     1.8170 hn         1 1P6       0.305800
     32 H7           3.0870    -2.3110     5.0090 h5         1 1P6      -0.009900
     33 H10          1.4540    -2.4270     0.4400 ha         1 1P6       0.163000
     34 H14         -0.1700    -4.0400    -2.5190 h4         1 1P6      -0.012900
     35 H15         -0.4350    -6.4900    -2.8520 ha         1 1P6       0.131000
     36 H16          0.2860    -8.0340    -1.0890 h4         1 1P6       0.146000
     37 HN20         2.7850    -5.6230     3.9650 hn         1 1P6       0.286300
     38 HN2A         2.4700    -7.3190     3.7890 hn         1 1P6       0.286300
     39 H22          2.4310     0.1950    -2.5400 ha         1 1P6       0.113000
     40 H23          3.2520     2.2080    -3.7020 ha         1 1P6       0.120500
     41 H26          2.5500     4.5250    -0.1800 ha         1 1P6       0.120500
     42 H27          1.7260     2.5120     0.9780 ha         1 1P6       0.113000
@<TRIPOS>BOND
     1     1     2 1   
     2     1    27 1   
     3     1    28 1   
     4     1    29 1   
     5     2     3 1   
     6     2    20 1   
     7     2    30 1   
     8     3     4 1   
     9     3    31 1   
    10     4     5 ar  
    11     4     9 ar  
    12     5     6 ar  
    13     6     7 ar  
    14     6    32 1   
    15     7     8 ar  
    16     8     9 ar  
    17     8    10 1   
    18     9    33 1   
    19    10    11 2   
    20    10    18 1   
    21    11    12 1   
    22    11    16 1   
    23    12    13 2   
    24    13    14 1   
    25    13    34 1   
    26    14    15 2   
    27    14    35 1   
    28    15    16 1   
    29    15    36 1   
    30    16    17 1   
    31    17    18 2   
    32    18    19 1   
    33    19    37 1   
    34    19    38 1   
    35    20    21 ar  
    36    20    26 ar  
    37    21    22 ar  
    38    21    39 1   
    39    22    23 ar  
    40    22    40 1   
    41    23    24 1   
    42    23    25 ar  
    43    25    26 ar  
    44    25    41 1   
    45    26    42 1   
@<TRIPOS>SUBSTRUCTURE
     1 1P6         1 TEMP              0 ****  ****    0 ROOT
