@<TRIPOS>MOLECULE
1P7
   17    18     1     0     0
SMALL
bcc


@<TRIPOS>ATOM
      1 O9           0.0000     0.0000     0.0000 o          1 1P7      -0.666500
      2 C8           1.2150     0.0000     0.0000 c          1 1P7       0.642100
      3 N7           1.9840     0.0000     1.1020 ns         1 1P7      -0.197900
      4 C6           3.3940    -0.0010     0.6950 c3         1 1P7       0.103300
      5 C10          2.0580    -0.0070    -1.2110 ca         1 1P7      -0.159600
      6 C11          1.7490    -0.0090    -2.5720 ca         1 1P7      -0.014000
      7 C2           2.7640    -0.0160    -3.5080 ca         1 1P7      -0.052600
      8 Cl1          2.3800    -0.0180    -5.2010 cl         1 1P7      -0.015400
      9 C5           3.3970    -0.0010    -0.8130 ca         1 1P7      -0.100300
     10 C4           4.4020    -0.0060    -1.7520 ca         1 1P7      -0.073000
     11 C3           4.0870    -0.0200    -3.1010 ca         1 1P7      -0.074000
     12 H1           3.8870     0.8890     1.0660 h1         1 1P7       0.025200
     13 H2           0.7160    -0.0820    -2.8920 ha         1 1P7       0.128000
     14 H3           5.4390    -0.0090    -1.4370 ha         1 1P7       0.108000
     15 H4           4.8790    -0.0250    -3.8410 ha         1 1P7       0.116000
     16 H5           1.6500     0.0000     2.0460 hn         1 1P7       0.204500
     17 H6           3.8870    -0.8900     1.0670 h1         1 1P7       0.025200
@<TRIPOS>BOND
     1     1     2 2   
     2     2     3 1   
     3     2     5 1   
     4     3     4 1   
     5     3    16 1   
     6     4     9 1   
     7     4    12 1   
     8     4    17 1   
     9     5     6 ar  
    10     5     9 ar  
    11     6     7 ar  
    12     6    13 1   
    13     7     8 1   
    14     7    11 ar  
    15     9    10 ar  
    16    10    11 ar  
    17    10    14 1   
    18    11    15 1   
@<TRIPOS>SUBSTRUCTURE
     1 1P7         1 TEMP              0 ****  ****    0 ROOT
