@<TRIPOS>MOLECULE
1P7
   17    18     1     0     0
SMALL
bcc


@<TRIPOS>ATOM
      1 O9          -0.0680     0.0250     0.0900 o          1 1P7      -0.604500
      2 C8           1.1650     0.0460    -0.0130 c          1 1P7       0.710100
      3 N7           2.0570     0.1090     1.0710 ns         1 1P7      -0.579900
      4 C6           3.4430     0.0160     0.6310 c3         1 1P7       0.128300
      5 C10          1.9940     0.0350    -1.2590 ca         1 1P7      -0.148600
      6 C11          1.6130     0.0390    -2.5860 ca         1 1P7      -0.050000
      7 C2           2.6360     0.0140    -3.5530 ca         1 1P7       0.002400
      8 Cl1          2.2150     0.0170    -5.1990 cl         1 1P7      -0.082400
      9 C5           3.3630     0.0060    -0.8790 ca         1 1P7      -0.086300
     10 C4           4.3590    -0.0160    -1.8360 ca         1 1P7      -0.111000
     11 C3           3.9840    -0.0140    -3.1880 ca         1 1P7      -0.102000
     12 H1           3.9370    -0.9190     1.0140 h1         1 1P7       0.062700
     13 H2           0.5510     0.0620    -2.8740 ha         1 1P7       0.170000
     14 H3           5.4220    -0.0350    -1.5580 ha         1 1P7       0.145000
     15 H4           4.7650    -0.0330    -3.9640 ha         1 1P7       0.152000
     16 H5           1.7960    -0.1390     1.9890 hn         1 1P7       0.329500
     17 H6           4.0190     0.9090     1.0000 h1         1 1P7       0.062700
@<TRIPOS>BOND
     1     1     2 2   
     2     2     3 1   
     3     2     5 1   
     4     3     4 1   
     5     3    16 1   
     6     4     9 1   
     7     4    12 1   
     8     4    17 1   
     9     5     6 ar  
    10     5     9 ar  
    11     6     7 ar  
    12     6    13 1   
    13     7     8 1   
    14     7    11 ar  
    15     9    10 ar  
    16    10    11 ar  
    17    10    14 1   
    18    11    15 1   
@<TRIPOS>SUBSTRUCTURE
     1 1P7         1 TEMP              0 ****  ****    0 ROOT
