@<TRIPOS>MOLECULE
molecule
   17    18     1     0     0
SMALL
bcc


@<TRIPOS>ATOM
      1 O9           0.0000     0.0000     0.0000 o          1 1P7      -0.621500
      2 C8           1.2150     0.0000     0.0000 c          1 1P7       0.716100
      3 N7           1.9840     0.0000     1.1020 ns         1 1P7      -0.585900
      4 C6           3.3940    -0.0010     0.6950 c3         1 1P7       0.141300
      5 C10          2.0580    -0.0070    -1.2110 ca         1 1P7      -0.151600
      6 C11          1.7490    -0.0090    -2.5720 ca         1 1P7      -0.050000
      7 C2           2.7640    -0.0160    -3.5080 ca         1 1P7       0.016400
      8 Cl1          2.3800    -0.0180    -5.2010 cl         1 1P7      -0.096400
      9 C5           3.3970    -0.0010    -0.8130 ca         1 1P7      -0.092300
     10 C4           4.4020    -0.0060    -1.7520 ca         1 1P7      -0.108000
     11 C3           4.0870    -0.0200    -3.1010 ca         1 1P7      -0.097000
     12 H1           3.8870     0.8890     1.0660 h1         1 1P7       0.061700
     13 H2           0.7160    -0.0820    -2.8920 ha         1 1P7       0.163000
     14 H3           5.4390    -0.0090    -1.4370 ha         1 1P7       0.140000
     15 H4           4.8790    -0.0250    -3.8410 ha         1 1P7       0.150000
     16 H5           1.6500     0.0000     2.0460 hn         1 1P7       0.354500
     17 H6           3.8870    -0.8900     1.0670 h1         1 1P7       0.061700
@<TRIPOS>BOND
     1     8     7 1
     2    11     7 ar
     3    11    10 ar
     4     7     6 ar
     5    10     9 ar
     6     6     5 ar
     7     9     5 ar
     8     9     4 1
     9     5     2 1
    10     4     3 1
    11     2     3 1
    12     2     1 2
    13     4    12 1
    14     6    13 1
    15    10    14 1
    16    11    15 1
    17     3    16 1
    18     4    17 1
@<TRIPOS>SUBSTRUCTURE
     1 1P7         1 TEMP              0 ****  ****    0 ROOT
