@<TRIPOS>MOLECULE
molecule
   17    18     1     0     0
SMALL
bcc


@<TRIPOS>ATOM
      1 O8           0.0000     0.0000     0.0000 o          1 1P8      -0.600500
      2 C7           1.2130     0.0000     0.0000 c          1 1P8       0.709500
      3 C6           2.1120     0.0000     1.2180 c3         1 1P8      -0.124100
      4 N9           2.0110    -0.0050    -1.0810 ns         1 1P8      -0.461100
      5 C10          3.3640    -0.0020    -0.7380 ca         1 1P8       0.055600
      6 C11          4.5060    -0.0070    -1.5380 ca         1 1P8      -0.134000
      7 C2           5.7570    -0.0030    -0.9560 ca         1 1P8       0.013100
      8 Br1          7.3010    -0.0080    -2.0480 br         1 1P8      -0.084100
      9 C5           3.5100     0.0000     0.6430 ca         1 1P8      -0.136300
     10 C4           4.7590     0.0030     1.2200 ca         1 1P8      -0.077000
     11 C3           5.8890     0.0030     0.4210 ca         1 1P8      -0.128000
     12 H1           1.9470     0.8920     1.8100 hc         1 1P8       0.093700
     13 H2           1.9470    -0.8920     1.8100 hc         1 1P8       0.093700
     14 H3           1.6740    -0.0090    -2.0240 hn         1 1P8       0.340500
     15 H4           4.4100    -0.0130    -2.6170 ha         1 1P8       0.147000
     16 H5           4.8580     0.0080     2.2990 ha         1 1P8       0.141000
     17 H6           6.8740     0.0060     0.8730 ha         1 1P8       0.150000
@<TRIPOS>BOND
     1     8     7 1
     2    11     7 ar
     3    11    10 ar
     4     7     6 ar
     5    10     9 ar
     6     6     5 ar
     7     9     5 ar
     8     9     3 1
     9     5     4 1
    10     3     2 1
    11     4     2 1
    12     2     1 2
    13     3    12 1
    14     3    13 1
    15     4    14 1
    16     6    15 1
    17    10    16 1
    18    11    17 1
@<TRIPOS>SUBSTRUCTURE
     1 1P8         1 TEMP              0 ****  ****    0 ROOT
