@<TRIPOS>MOLECULE
1P8
   17    18     1     0     0
SMALL
bcc


@<TRIPOS>ATOM
      1 O8          -0.0100     0.0020    -0.0370 o          1 1P8      -0.595500
      2 C7           1.2240    -0.0010     0.0100 c          1 1P8       0.700500
      3 C6           2.1130     0.0110     1.2650 c3         1 1P8      -0.104100
      4 N9           2.0540    -0.0150    -1.1290 ns         1 1P8      -0.482100
      5 C10          3.4020    -0.0130    -0.7380 ca         1 1P8       0.061600
      6 C11          4.5470    -0.0240    -1.5290 ca         1 1P8      -0.146000
      7 C2           5.7920    -0.0200    -0.8790 ca         1 1P8       0.010100
      8 Br1          7.3530    -0.0340    -1.9180 br         1 1P8      -0.082100
      9 C5           3.4970     0.0020     0.6960 ca         1 1P8      -0.136300
     10 C4           4.7310     0.0050     1.3080 ca         1 1P8      -0.078000
     11 C3           5.8870    -0.0060     0.5110 ca         1 1P8      -0.136000
     12 H1           1.9040     0.9280     1.8680 hc         1 1P8       0.097700
     13 H2           1.9000    -0.8940     1.8870 hc         1 1P8       0.097700
     14 H3           1.7440    -0.0240    -2.0650 hn         1 1P8       0.343500
     15 H4           4.4800    -0.0350    -2.6270 ha         1 1P8       0.155000
     16 H5           4.8210     0.0170     2.4040 ha         1 1P8       0.144000
     17 H6           6.8720    -0.0030     1.0020 ha         1 1P8       0.150000
@<TRIPOS>BOND
     1     1     2 2   
     2     2     3 1   
     3     2     4 1   
     4     3     9 1   
     5     3    12 1   
     6     3    13 1   
     7     4     5 1   
     8     4    14 1   
     9     5     6 ar  
    10     5     9 ar  
    11     6     7 ar  
    12     6    15 1   
    13     7     8 1   
    14     7    11 ar  
    15     9    10 ar  
    16    10    11 ar  
    17    10    16 1   
    18    11    17 1   
@<TRIPOS>SUBSTRUCTURE
     1 1P8         1 TEMP              0 ****  ****    0 ROOT
