@<TRIPOS>MOLECULE
1P9
   51    54     1     0     0
SMALL
bcc


@<TRIPOS>ATOM
      1 O22          0.5500     1.4460    -0.2470 o          1 1P9      -0.634500
      2 C21          1.7380     1.1040    -0.1660 c          1 1P9       0.698500
      3 N20          2.5440     1.3450     0.9570 ns         1 1P9      -0.483100
      4 C23          2.5740     0.3660    -1.2240 c3         1 1P9      -0.100100
      5 C24          3.9130     0.2320    -0.5640 ca         1 1P9      -0.135300
      6 C19          3.8400     0.8350     0.7360 ca         1 1P9       0.026600
      7 C18          4.9440     0.8580     1.5770 ca         1 1P9      -0.148000
      8 C16          6.1320     0.2660     1.1110 ca         1 1P9      -0.004900
      9 Br1          7.6280     0.2880     2.2430 br         1 1P9      -0.086100
     10 C15          6.2140    -0.3260    -0.1460 ca         1 1P9      -0.089000
     11 C14          5.0910    -0.3430    -1.0010 ca         1 1P9      -0.043300
     12 C13          5.1650    -1.0550    -2.3190 c3         1 1P9       0.125300
     13 N12          5.7830    -0.3640    -3.4320 n          1 1P9      -0.312000
     14 C10          6.7900    -1.1280    -4.1740 c          1 1P9       0.812500
     15 O11          6.6350    -2.3030    -4.5310 o          1 1P9      -0.608500
     16 C25          6.2940     0.9580    -3.3530 ca         1 1P9      -0.000400
     17 C30          7.5470     1.0330    -4.0860 ca         1 1P9       0.007600
     18 C29          8.2040     2.2520    -4.2100 ca         1 1P9      -0.131000
     19 C28          7.6230     3.3910    -3.6400 ca         1 1P9      -0.143000
     20 C27          6.4160     3.3200    -2.9540 ca         1 1P9      -0.143000
     21 C26          5.7390     2.1050    -2.7990 ca         1 1P9      -0.131000
     22 N9           7.8430    -0.2370    -4.6550 n          1 1P9      -0.297000
     23 C4           9.1970    -0.7900    -4.6300 c3         1 1P9       0.096700
     24 C5           9.9570    -0.5730    -3.3200 c3         1 1P9      -0.221400
     25 C6           9.3350    -1.3100    -2.1280 c          1 1P9       0.912600
     26 O8          10.0690    -1.5460    -1.1330 o          1 1P9      -0.847300
     27 O7           8.1050    -1.6390    -2.1720 o          1 1P9      -0.847300
     28 C3          10.0520    -0.2830    -5.8020 c3         1 1P9      -0.076400
     29 C2           9.4830    -0.6670    -7.1500 c3         1 1P9      -0.081400
     30 C1          10.4340    -0.3190    -8.2680 c3         1 1P9      -0.090100
     31 H1           2.2650     1.8120     1.7770 hn         1 1P9       0.332500
     32 H2           2.1090    -0.6250    -1.4520 hc         1 1P9       0.094200
     33 H3           2.6230     0.9720    -2.1620 hc         1 1P9       0.094200
     34 H4           4.8930     1.3200     2.5720 ha         1 1P9       0.139000
     35 H5           7.1600    -0.8000    -0.5090 ha         1 1P9       0.242000
     36 H6           5.7210    -2.0310    -2.1530 h1         1 1P9       0.077200
     37 H7           4.1120    -1.2930    -2.6570 h1         1 1P9       0.077200
     38 H8           9.1640     2.3270    -4.7380 ha         1 1P9       0.134000
     39 H9           8.1400     4.3560    -3.7370 ha         1 1P9       0.116000
     40 H10          5.9830     4.2300    -2.5140 ha         1 1P9       0.117000
     41 H11          4.7950     2.0590    -2.2380 ha         1 1P9       0.133000
     42 H12          9.0620    -1.9100    -4.7610 h1         1 1P9       0.088700
     43 H13         10.0000     0.5170    -3.0700 hc         1 1P9       0.044700
     44 H14         11.0070    -0.9400    -3.4470 hc         1 1P9       0.044700
     45 H16         11.0720    -0.7380    -5.6880 hc         1 1P9       0.035700
     46 H17         10.1750     0.8290    -5.7450 hc         1 1P9       0.035700
     47 H18          9.2700    -1.7690    -7.1650 hc         1 1P9       0.049200
     48 H19          8.5050    -0.1420    -7.3140 hc         1 1P9       0.049200
     49 H20          9.9930    -0.6000    -9.2550 hc         1 1P9       0.022700
     50 H21         11.4020    -0.8620    -8.1470 hc         1 1P9       0.022700
     51 H22         10.6470     0.7770    -8.2770 hc         1 1P9       0.022700
@<TRIPOS>BOND
     1     1     2 2   
     2     2     3 1   
     3     2     4 1   
     4     3     6 1   
     5     3    31 1   
     6     4     5 1   
     7     4    32 1   
     8     4    33 1   
     9     5     6 ar  
    10     5    11 ar  
    11     6     7 ar  
    12     7     8 ar  
    13     7    34 1   
    14     8     9 1   
    15     8    10 ar  
    16    10    11 ar  
    17    10    35 1   
    18    11    12 1   
    19    12    13 1   
    20    12    36 1   
    21    12    37 1   
    22    13    14 1   
    23    13    16 1   
    24    14    15 2   
    25    14    22 1   
    26    16    17 ar  
    27    16    21 ar  
    28    17    18 ar  
    29    17    22 1   
    30    18    19 ar  
    31    18    38 1   
    32    19    20 ar  
    33    19    39 1   
    34    20    21 ar  
    35    20    40 1   
    36    21    41 1   
    37    22    23 1   
    38    23    24 1   
    39    23    28 1   
    40    23    42 1   
    41    24    25 1   
    42    24    43 1   
    43    24    44 1   
    44    25    26 1   
    45    25    27 1   
    46    28    29 1   
    47    28    45 1   
    48    28    46 1   
    49    29    30 1   
    50    29    47 1   
    51    29    48 1   
    52    30    49 1   
    53    30    50 1   
    54    30    51 1   
@<TRIPOS>SUBSTRUCTURE
     1 1P9         1 TEMP              0 ****  ****    0 ROOT
