@<TRIPOS>MOLECULE
1P9
   51    54     1     0     0
SMALL
bcc


@<TRIPOS>ATOM
      1 O22          0.0000     0.0000     0.0000 o          1 1P9      -0.661500
      2 C21          1.2130     0.0000     0.0000 c          1 1P9       0.609500
      3 N20          2.0110     0.0000     1.0800 ns         1 1P9      -0.009100
      4 C23          2.1120    -0.0060    -1.2180 c3         1 1P9      -0.045100
      5 C24          3.5090    -0.0020    -0.6440 ca         1 1P9      -0.141300
      6 C19          3.3640     0.0000     0.7380 ca         1 1P9      -0.095400
      7 C18          4.5050     0.0030     1.5370 ca         1 1P9      -0.115000
      8 C16          5.7580     0.0040     0.9550 ca         1 1P9       0.013100
      9 Br1          7.3020     0.0080     2.0470 br         1 1P9      -0.133100
     10 C15          5.8890     0.0010    -0.4210 ca         1 1P9      -0.098000
     11 C14          4.7590    -0.0030    -1.2220 ca         1 1P9       0.004700
     12 C13          4.8960    -0.0060    -2.7220 c3         1 1P9       0.112300
     13 N12          6.3090     0.1320    -3.0830 n          1 1P9       0.038000
     14 C10          7.1560    -0.8800    -3.3510 c          1 1P9       0.582500
     15 O11          6.8650    -2.0620    -3.3320 o          1 1P9      -0.738500
     16 C25          7.0050     1.3320    -3.2130 ca         1 1P9      -0.170400
     17 C30          8.3150     1.0020    -3.5680 ca         1 1P9      -0.087400
     18 C29          9.2500     2.0070    -3.7640 ca         1 1P9      -0.047000
     19 C28          8.8810     3.3290    -3.6090 ca         1 1P9      -0.111000
     20 C27          7.5820     3.6550    -3.2570 ca         1 1P9      -0.124000
     21 C26          6.6430     2.6610    -3.0630 ca         1 1P9      -0.097000
     22 N9           8.3740    -0.3870    -3.6450 n          1 1P9       0.118000
     23 C4           9.5590    -1.1770    -3.9870 c3         1 1P9       0.043700
     24 C5           9.2760    -2.0040    -5.2430 c3         1 1P9      -0.168400
     25 C6           9.0600    -1.0810    -6.4140 c          1 1P9       0.978600
     26 O8           9.1260     0.1150    -6.2610 o          1 1P9      -0.901800
     27 O7           8.7940    -1.5890    -7.6280 o          1 1P9      -0.901800
     28 C3           9.9010    -2.1130    -2.8270 c3         1 1P9      -0.068400
     29 C2          10.3060    -1.2830    -1.6050 c3         1 1P9      -0.035400
     30 C1          10.6480    -2.2190    -0.4440 c3         1 1P9       0.004900
     31 H1           1.6740     0.0000     2.0230 hn         1 1P9       0.172500
     32 H2           1.9470    -0.9020    -1.8050 hc         1 1P9       0.057200
     33 H3           1.9460     0.8830    -1.8150 hc         1 1P9       0.057200
     34 H4           4.5140     0.0070     2.6200 ha         1 1P9       0.115000
     35 H5           6.9630     0.0630    -0.2940 ha         1 1P9       0.161000
     36 H6           4.3350     0.8220    -3.1370 h1         1 1P9       0.044200
     37 H7           4.5110    -0.9380    -3.1170 h1         1 1P9       0.044200
     38 H8          10.2670     1.7560    -4.0390 ha         1 1P9       0.117000
     39 H9           9.6120     4.1140    -3.7600 ha         1 1P9       0.094000
     40 H10          7.3000     4.6940    -3.1380 ha         1 1P9       0.091000
     41 H11          5.6280     2.9200    -2.7880 ha         1 1P9       0.092000
     42 H12         10.3950    -0.5130    -4.1730 h1         1 1P9       0.051700
     43 H13         10.1190    -2.6540    -5.4450 hc         1 1P9       0.034700
     44 H14          8.3870    -2.6040    -5.0870 hc         1 1P9       0.034700
     45 H16         10.7230    -2.7580    -3.1130 hc         1 1P9       0.035700
     46 H17          9.0360    -2.7170    -2.5820 hc         1 1P9       0.035700
     47 H18         11.1710    -0.6790    -1.8490 hc         1 1P9       0.010200
     48 H19          9.4840    -0.6380    -1.3180 hc         1 1P9       0.010200
     49 H20         11.5190    -2.8100    -0.7010 hc         1 1P9      -0.004633
     50 H21          9.8090    -2.8770    -0.2520 hc         1 1P9      -0.004633
     51 H22         10.8580    -1.6330     0.4420 hc         1 1P9      -0.004633
@<TRIPOS>BOND
     1     1     2 2   
     2     2     3 1   
     3     2     4 1   
     4     3     6 1   
     5     3    31 1   
     6     4     5 1   
     7     4    32 1   
     8     4    33 1   
     9     5     6 ar  
    10     5    11 ar  
    11     6     7 ar  
    12     7     8 ar  
    13     7    34 1   
    14     8     9 1   
    15     8    10 ar  
    16    10    11 ar  
    17    10    35 1   
    18    11    12 1   
    19    12    13 1   
    20    12    36 1   
    21    12    37 1   
    22    13    14 1   
    23    13    16 1   
    24    14    15 2   
    25    14    22 1   
    26    16    17 ar  
    27    16    21 ar  
    28    17    18 ar  
    29    17    22 1   
    30    18    19 ar  
    31    18    38 1   
    32    19    20 ar  
    33    19    39 1   
    34    20    21 ar  
    35    20    40 1   
    36    21    41 1   
    37    22    23 1   
    38    23    24 1   
    39    23    28 1   
    40    23    42 1   
    41    24    25 1   
    42    24    43 1   
    43    24    44 1   
    44    25    26 1   
    45    25    27 1   
    46    28    29 1   
    47    28    45 1   
    48    28    46 1   
    49    29    30 1   
    50    29    47 1   
    51    29    48 1   
    52    30    49 1   
    53    30    50 1   
    54    30    51 1   
@<TRIPOS>SUBSTRUCTURE
     1 1P9         1 TEMP              0 ****  ****    0 ROOT
