@<TRIPOS>MOLECULE
1PD
   58    61     1     0     0
SMALL
bcc


@<TRIPOS>ATOM
      1 O31          0.0000     0.0000     0.0000 o          1 1PD      -0.556800
      2 S35          1.4220     0.0000     0.0000 sy         1 1PD       1.034200
      3 O30          2.2090    -0.9700    -0.6750 o          1 1PD      -0.556800
      4 C8           1.9380     0.0000     1.6920 ca         1 1PD      -0.173500
      5 C3           1.3500    -0.8230     2.6160 ca         1 1PD       0.039000
      6 C7           1.7870    -0.8000     3.9370 ca         1 1PD       0.049100
      7 O33          1.2090    -1.6120     4.8600 os         1 1PD      -0.269900
      8 C18          1.7090    -1.5340     6.1970 c3         1 1PD       0.154400
      9 C15          0.9530    -2.4990     7.0730 c          1 1PD       0.287100
     10 O29          0.0720    -3.1860     6.5990 o          1 1PD      -0.358100
     11 N27          1.2550    -2.6000     8.3830 nz         1 1PD       0.208600
     12 C2           2.8160     0.0550     4.3090 ca         1 1PD      -0.148000
     13 N25          1.9090     1.4980    -0.5580 nu         1 1PD      -0.474100
     14 C13          3.1050     1.9830    -0.0550 ce         1 1PD       0.682500
     15 N23          3.5450     1.6990     1.1330 nf         1 1PD      -0.602100
     16 C6           2.9730     0.8720     2.0530 ca         1 1PD       0.231400
     17 C1           3.4080     0.8860     3.3820 ca         1 1PD      -0.070000
     18 C11          3.9190     2.8630    -0.9090 cc         1 1PD      -0.333800
     19 C12          5.1310     3.3770    -0.4500 cd         1 1PD       0.146500
     20 O32          5.5760     3.0730     0.7900 oh         1 1PD      -0.454100
     21 C14          3.4860     3.1990    -2.2180 c          1 1PD       0.615700
     22 O28          2.4320     2.7590    -2.6470 o          1 1PD      -0.698500
     23 N26          4.2450     4.0070    -2.9830 n          1 1PD       0.184200
     24 C20          3.7980     4.3530    -4.3340 c3         1 1PD       0.036000
     25 C19          2.9490     5.6250    -4.2800 c3         1 1PD      -0.044400
     26 C21          2.4820     5.9870    -5.6910 c3         1 1PD      -0.047700
     27 C17          1.5460     4.8970    -6.2150 c3         1 1PD       0.003900
     28 C16          1.7380     7.3230    -5.6550 c3         1 1PD       0.003900
     29 N24          5.4550     4.5180    -2.5030 nc         1 1PD      -0.458300
     30 C10          5.8890     4.2230    -1.2990 cd         1 1PD       0.423200
     31 C9           7.1750     4.7760    -0.8250 cd         1 1PD      -0.176300
     32 S34          8.3630     3.9370     0.1710 ss         1 1PD      -0.274300
     33 C5           9.3710     5.3180     0.1480 cd         1 1PD       0.484300
     34 N22          8.8250     6.2620    -0.5420 nc         1 1PD      -0.561000
     35 C4           7.6540     6.0120    -1.0830 cc         1 1PD       0.401200
     36 H3           0.6170    -1.5560     2.3010 ha         1 1PD       0.130000
     37 H18          2.7620    -1.7880     6.2040 h1         1 1PD       0.039700
     38 H18A         1.5780    -0.5260     6.5730 h1         1 1PD       0.039700
     39 HN27         1.8920    -1.8700     8.6350 hn         1 1PD       0.246133
     40 HN2A         0.4190    -2.5150     8.9260 hn         1 1PD       0.246133
     41 H2           3.1540     0.0720     5.3380 ha         1 1PD       0.092000
     42 HN25         1.3660     2.0170    -1.2190 hn         1 1PD       0.413800
     43 H1           4.2110     1.5490     3.6830 ha         1 1PD       0.124000
     44 HO32         5.4050     3.7950     1.3720 ho         1 1PD       0.421000
     45 H20          4.6610     4.5220    -4.9680 h1         1 1PD       0.055700
     46 H20A         3.2060     3.5410    -4.7380 h1         1 1PD       0.055700
     47 H19          2.0870     5.4560    -3.6460 hc         1 1PD       0.025200
     48 H19A         3.5410     6.4370    -3.8760 hc         1 1PD       0.025200
     49 H21          3.3420     6.0700    -6.3460 hc         1 1PD       0.028700
     50 H17          0.8160     4.6510    -5.4530 hc         1 1PD       0.006700
     51 H17A         1.0360     5.2540    -7.1010 hc         1 1PD       0.006700
     52 H17B         2.1220     4.0130    -6.4610 hc         1 1PD       0.006700
     53 H16          1.4340     7.5950    -6.6590 hc         1 1PD       0.006700
     54 H16A         0.8620     7.2320    -5.0250 hc         1 1PD       0.006700
     55 H16B         2.3920     8.0900    -5.2560 hc         1 1PD       0.006700
     56 H5          10.3310     5.3910     0.6450 h5         1 1PD       0.030100
     57 H4           7.1150     6.7380    -1.6800 h4         1 1PD       0.012100
     58 H273         1.6870    -3.4850     8.5590 hn         1 1PD       0.246133
@<TRIPOS>BOND
     1     1     2 2   
     2     2     3 2   
     3     2     4 1   
     4     2    13 1   
     5     4     5 ar  
     6     4    16 ar  
     7     5     6 ar  
     8     5    36 1   
     9     6     7 1   
    10     6    12 ar  
    11     7     8 1   
    12     8     9 1   
    13     8    37 1   
    14     8    38 1   
    15     9    10 2   
    16     9    11 1   
    17    11    39 1   
    18    11    40 1   
    19    11    58 1   
    20    12    17 ar  
    21    12    41 1   
    22    13    14 1   
    23    13    42 1   
    24    14    15 2   
    25    14    18 1   
    26    15    16 1   
    27    16    17 ar  
    28    17    43 1   
    29    18    19 2   
    30    18    21 1   
    31    19    20 1   
    32    19    30 1   
    33    20    44 1   
    34    21    22 2   
    35    21    23 1   
    36    23    24 1   
    37    23    29 1   
    38    24    25 1   
    39    24    45 1   
    40    24    46 1   
    41    25    26 1   
    42    25    47 1   
    43    25    48 1   
    44    26    27 1   
    45    26    28 1   
    46    26    49 1   
    47    27    50 1   
    48    27    51 1   
    49    27    52 1   
    50    28    53 1   
    51    28    54 1   
    52    28    55 1   
    53    29    30 2   
    54    30    31 1   
    55    31    32 1   
    56    31    35 2   
    57    32    33 1   
    58    33    34 2   
    59    33    56 1   
    60    34    35 1   
    61    35    57 1   
@<TRIPOS>SUBSTRUCTURE
     1 1PD         1 TEMP              0 ****  ****    0 ROOT
