@<TRIPOS>MOLECULE
1PD
   58    61     1     0     0
SMALL
bcc


@<TRIPOS>ATOM
      1 O31          0.7160    -0.3200     1.3670 o          1 1PD      -0.664300
      2 S35          1.9650    -0.2490     0.6780 sy         1 1PD       1.538200
      3 O30          2.0710    -1.1560    -0.3680 o          1 1PD      -0.664300
      4 C8           3.0750    -0.5010     1.9070 ca         1 1PD      -0.433500
      5 C3           2.8490    -1.6700     2.6550 ca         1 1PD      -0.150000
      6 C7           3.4180    -1.7950     3.9070 ca         1 1PD       0.039100
      7 O33          2.9770    -2.7090     4.8620 os         1 1PD      -0.295900
      8 C18          1.9770    -3.6160     4.4660 c3         1 1PD       0.067400
      9 C15          0.5740    -3.0330     4.3640 c          1 1PD       0.501100
     10 O29         -0.4560    -3.6830     4.4590 o          1 1PD      -0.396100
     11 N27          0.3860    -1.5630     4.1170 nz         1 1PD      -0.763400
     12 C2           4.4420    -0.9090     4.3300 ca         1 1PD      -0.066000
     13 N25          2.3480     1.2650     0.2090 nu         1 1PD      -0.846100
     14 C13          3.4110     2.0340     0.7200 ce         1 1PD       0.812500
     15 N23          4.2280     1.6580     1.6900 nf         1 1PD      -0.616100
     16 C6           4.0270     0.4410     2.3430 ca         1 1PD       0.290400
     17 C1           4.7680     0.1690     3.5380 ca         1 1PD      -0.081000
     18 C11          3.6010     3.3720     0.1180 cc         1 1PD      -0.359800
     19 C12          3.7660     3.5710    -1.2370 cd         1 1PD       0.161500
     20 O32          3.6540     2.5080    -2.0740 oh         1 1PD      -0.485100
     21 C14          3.6560     4.5160     1.0340 c          1 1PD       0.707700
     22 O28          3.4040     4.4630     2.2470 o          1 1PD      -0.593500
     23 N26          4.0020     5.7780     0.4280 n          1 1PD      -0.169800
     24 C20          4.1610     6.9590     1.3060 c3         1 1PD       0.097000
     25 C19          3.1670     8.0850     1.0590 c3         1 1PD      -0.093400
     26 C21          1.7180     7.7200     1.3390 c3         1 1PD      -0.065700
     27 C17          1.5040     7.3330     2.7880 c3         1 1PD      -0.098100
     28 C16          0.8230     8.8880     0.9700 c3         1 1PD      -0.098100
     29 N24          4.1790     5.9440    -0.8570 nc         1 1PD      -0.345300
     30 C10          4.0630     4.9180    -1.7090 cd         1 1PD       0.339200
     31 C9           4.2450     5.1590    -3.1260 cd         1 1PD      -0.288300
     32 S34          5.5640     5.9520    -3.8010 ss         1 1PD       0.027700
     33 C5           4.9010     5.7870    -5.3510 cd         1 1PD       0.362300
     34 N22          3.7180     5.1680    -5.4070 nc         1 1PD      -0.612000
     35 C4           3.3330     4.8150    -4.1320 cc         1 1PD       0.334200
     36 H3           2.2120    -2.4560     2.2160 ha         1 1PD       0.145000
     37 H18          2.2110    -4.1290     3.4920 h1         1 1PD       0.140200
     38 H18A         1.9610    -4.3770     5.3070 h1         1 1PD       0.140200
     39 HN27        -0.5170    -1.2500     4.4910 hn         1 1PD       0.484133
     40 HN2A         1.1460    -1.0300     4.5540 hn         1 1PD       0.484133
     41 H2           4.9540    -1.0960     5.2880 ha         1 1PD       0.180000
     42 HN25         1.8780     1.6970    -0.5620 hn         1 1PD       0.485800
     43 H1           5.5750     0.8600     3.8400 ha         1 1PD       0.189000
     44 HO32         3.9070     2.7770    -2.9780 ho         1 1PD       0.470000
     45 H20          4.0660     6.5900     2.3670 h1         1 1PD       0.085700
     46 H20A         5.2060     7.3580     1.1570 h1         1 1PD       0.085700
     47 H19          3.4700     8.9310     1.7350 hc         1 1PD       0.064700
     48 H19A         3.2540     8.4540     0.0030 hc         1 1PD       0.064700
     49 H21          1.4330     6.8430     0.6920 hc         1 1PD       0.039700
     50 H17          1.8850     8.1310     3.4690 hc         1 1PD       0.040367
     51 H17A         0.4140     7.1900     2.9900 hc         1 1PD       0.040367
     52 H17B         2.0330     6.3760     3.0230 hc         1 1PD       0.040367
     53 H16          0.9580     9.1600    -0.1040 hc         1 1PD       0.040367
     54 H16A         1.0660     9.7800     1.5960 hc         1 1PD       0.040367
     55 H16B        -0.2480     8.6200     1.1370 hc         1 1PD       0.040367
     56 H5           5.3850     6.1580    -6.2630 h5         1 1PD       0.072100
     57 H4           2.3640     4.3230    -3.9880 h4         1 1PD       0.049100
     58 H273         0.3930    -1.3570     3.0940 hn         1 1PD       0.484133
@<TRIPOS>BOND
     1     1     2 2   
     2     2     3 2   
     3     2     4 1   
     4     2    13 1   
     5     4     5 ar  
     6     4    16 ar  
     7     5     6 ar  
     8     5    36 1   
     9     6     7 1   
    10     6    12 ar  
    11     7     8 1   
    12     8     9 1   
    13     8    37 1   
    14     8    38 1   
    15     9    10 2   
    16     9    11 1   
    17    11    39 1   
    18    11    40 1   
    19    11    58 1   
    20    12    17 ar  
    21    12    41 1   
    22    13    14 1   
    23    13    42 1   
    24    14    15 2   
    25    14    18 1   
    26    15    16 1   
    27    16    17 ar  
    28    17    43 1   
    29    18    19 2   
    30    18    21 1   
    31    19    20 1   
    32    19    30 1   
    33    20    44 1   
    34    21    22 2   
    35    21    23 1   
    36    23    24 1   
    37    23    29 1   
    38    24    25 1   
    39    24    45 1   
    40    24    46 1   
    41    25    26 1   
    42    25    47 1   
    43    25    48 1   
    44    26    27 1   
    45    26    28 1   
    46    26    49 1   
    47    27    50 1   
    48    27    51 1   
    49    27    52 1   
    50    28    53 1   
    51    28    54 1   
    52    28    55 1   
    53    29    30 2   
    54    30    31 1   
    55    31    32 1   
    56    31    35 2   
    57    32    33 1   
    58    33    34 2   
    59    33    56 1   
    60    34    35 1   
    61    35    57 1   
@<TRIPOS>SUBSTRUCTURE
     1 1PD         1 TEMP              0 ****  ****    0 ROOT
