@<TRIPOS>MOLECULE
molecule
   58    61     1     0     0
SMALL
bcc


@<TRIPOS>ATOM
      1 O31          0.0000     0.0000     0.0000 o          1 1PD      -0.595800
      2 S35          1.4220     0.0000     0.0000 sy         1 1PD       1.400200
      3 O30          2.2090    -0.9700    -0.6750 o          1 1PD      -0.595800
      4 C8           1.9380     0.0000     1.6920 ca         1 1PD      -0.318500
      5 C3           1.3500    -0.8230     2.6160 ca         1 1PD       0.002000
      6 C7           1.7870    -0.8000     3.9370 ca         1 1PD       0.060100
      7 O33          1.2090    -1.6120     4.8600 os         1 1PD      -0.294900
      8 C18          1.7090    -1.5340     6.1970 c3         1 1PD       0.078400
      9 C15          0.9530    -2.4990     7.0730 c          1 1PD       0.465100
     10 O29          0.0720    -3.1860     6.5990 o          1 1PD      -0.350100
     11 N27          1.2550    -2.6000     8.3830 nz         1 1PD      -0.682400
     12 C2           2.8160     0.0550     4.3090 ca         1 1PD      -0.164000
     13 N25          1.9090     1.4980    -0.5580 nu         1 1PD      -0.832100
     14 C13          3.1050     1.9830    -0.0550 ce         1 1PD       0.797500
     15 N23          3.5450     1.6990     1.1330 nf         1 1PD      -0.691100
     16 C6           2.9730     0.8720     2.0530 ca         1 1PD       0.265400
     17 C1           3.4080     0.8860     3.3820 ca         1 1PD      -0.086000
     18 C11          3.9190     2.8630    -0.9090 cc         1 1PD      -0.291800
     19 C12          5.1310     3.3770    -0.4500 cd         1 1PD       0.129500
     20 O32          5.5760     3.0730     0.7900 oh         1 1PD      -0.479100
     21 C14          3.4860     3.1990    -2.2180 c          1 1PD       0.689700
     22 O28          2.4320     2.7590    -2.6470 o          1 1PD      -0.652500
     23 N26          4.2450     4.0070    -2.9830 n          1 1PD      -0.179800
     24 C20          3.7980     4.3530    -4.3340 c3         1 1PD       0.116000
     25 C19          2.9490     5.6250    -4.2800 c3         1 1PD      -0.098400
     26 C21          2.4820     5.9870    -5.6910 c3         1 1PD      -0.074700
     27 C17          1.5460     4.8970    -6.2150 c3         1 1PD      -0.089600
     28 C16          1.7380     7.3230    -5.6550 c3         1 1PD      -0.089600
     29 N24          5.4550     4.5180    -2.5030 nc         1 1PD      -0.381300
     30 C10          5.8890     4.2230    -1.2990 cd         1 1PD       0.422200
     31 C9           7.1750     4.7760    -0.8250 cd         1 1PD      -0.221300
     32 S34          8.3630     3.9370     0.1710 ss         1 1PD      -0.146300
     33 C5           9.3710     5.3180     0.1480 cd         1 1PD       0.450300
     34 N22          8.8250     6.2620    -0.5420 nc         1 1PD      -0.676000
     35 C4           7.6540     6.0120    -1.0830 cc         1 1PD       0.416200
     36 H3           0.6170    -1.5560     2.3010 ha         1 1PD       0.164000
     37 H18          2.7620    -1.7880     6.2040 h1         1 1PD       0.082200
     38 H18A         1.5780    -0.5260     6.5730 h1         1 1PD       0.082200
     39 HN27         1.8920    -1.8700     8.6350 hn         1 1PD       0.480800
     40 HN2A         0.4190    -2.5150     8.9260 hn         1 1PD       0.480800
     41 H2           3.1540     0.0720     5.3380 ha         1 1PD       0.114000
     42 HN25         1.3660     2.0170    -1.2190 hn         1 1PD       0.514800
     43 H1           4.2110     1.5490     3.6830 ha         1 1PD       0.159000
     44 HO32         5.4050     3.7950     1.3720 ho         1 1PD       0.445000
     45 H20          4.6610     4.5220    -4.9680 h1         1 1PD       0.084700
     46 H20A         3.2060     3.5410    -4.7380 h1         1 1PD       0.084700
     47 H19          2.0870     5.4560    -3.6460 hc         1 1PD       0.054200
     48 H19A         3.5410     6.4370    -3.8760 hc         1 1PD       0.054200
     49 H21          3.3420     6.0700    -6.3460 hc         1 1PD       0.052700
     50 H17          0.8160     4.6510    -5.4530 hc         1 1PD       0.038700
     51 H17A         1.0360     5.2540    -7.1010 hc         1 1PD       0.038700
     52 H17B         2.1220     4.0130    -6.4610 hc         1 1PD       0.038700
     53 H16          1.4340     7.5950    -6.6590 hc         1 1PD       0.038700
     54 H16A         0.8620     7.2320    -5.0250 hc         1 1PD       0.038700
     55 H16B         2.3920     8.0900    -5.2560 hc         1 1PD       0.038700
     56 H5          10.3310     5.3910     0.6450 h5         1 1PD       0.070100
     57 H4           7.1150     6.7380    -1.6800 h4         1 1PD       0.059100
     58 H273         1.6870    -3.4850     8.5590 hn         1 1PD       0.480800
@<TRIPOS>BOND
     1     1     2 2   
     2     2     3 2   
     3     2     4 1   
     4     2    13 1   
     5     4     5 ar  
     6     4    16 ar  
     7     5     6 ar  
     8     6     7 1   
     9     6    12 ar  
    10     7     8 1   
    11     8     9 1   
    12     9    10 2   
    13     9    11 1   
    14    12    17 ar  
    15    13    14 1   
    16    14    15 2   
    17    14    18 1   
    18    15    16 1   
    19    16    17 ar  
    20    18    19 2   
    21    18    21 1   
    22    19    20 1   
    23    19    30 1   
    24    21    22 2   
    25    21    23 1   
    26    23    24 1   
    27    23    29 1   
    28    24    25 1   
    29    25    26 1   
    30    26    27 1   
    31    26    28 1   
    32    29    30 2   
    33    30    31 1   
    34    31    32 1   
    35    31    35 2   
    36    32    33 1   
    37    33    34 2   
    38    34    35 1   
    39     5    36 1   
    40     8    37 1   
    41     8    38 1   
    42    11    39 1   
    43    11    40 1   
    44    12    41 1   
    45    13    42 1   
    46    17    43 1   
    47    20    44 1   
    48    24    45 1   
    49    24    46 1   
    50    25    47 1   
    51    25    48 1   
    52    26    49 1   
    53    27    50 1   
    54    27    51 1   
    55    27    52 1   
    56    28    53 1   
    57    28    54 1   
    58    28    55 1   
    59    33    56 1   
    60    35    57 1   
    61    58    11 1   
@<TRIPOS>SUBSTRUCTURE
     1 1PD         1 TEMP              0 ****  ****    0 ROOT
