@<TRIPOS>MOLECULE
1PE
   38    37     1     0     0
SMALL
bcc


@<TRIPOS>ATOM
      1 OH2          4.2670     0.0700     2.3690 oh         1 1PE      -0.609300
      2 C12          3.0790     0.7990     2.1380 c3         1 1PE       0.098400
      3 C22          2.6480     0.7160     0.6760 c3         1 1PE       0.112400
      4 OH3          3.5830     1.3700    -0.1740 os         1 1PE      -0.430600
      5 C13          5.8410     1.3850    -0.9340 c3         1 1PE       0.126400
      6 C23          4.6190     0.5160    -0.6570 c3         1 1PE       0.085900
      7 OH4          6.5430     1.6800     0.2660 os         1 1PE      -0.432600
      8 C14          6.6870     2.8460     2.3210 c3         1 1PE       0.114400
      9 C24          6.0720     2.8560     0.9260 c3         1 1PE       0.114400
     10 OH5          5.6290     2.5120     3.2200 os         1 1PE      -0.432600
     11 C15          6.5990     0.8520     4.6880 c3         1 1PE       0.085900
     12 C25          6.0670     2.2760     4.5510 c3         1 1PE       0.126400
     13 OH6          6.7110     0.6080     6.0900 os         1 1PE      -0.430600
     14 C16          8.8510    -0.5390     6.2950 c3         1 1PE       0.098400
     15 C26          7.3300    -0.6340     6.3910 c3         1 1PE       0.112400
     16 OH7          9.2120    -0.8200     4.9530 oh         1 1PE      -0.609300
     17 HO2          5.0050     0.6470     2.1170 ho         1 1PE       0.411500
     18 H121         3.2110     1.8710     2.4420 h1         1 1PE       0.042950
     19 H122         2.3010     0.3110     2.7840 h1         1 1PE       0.042950
     20 H221         1.6930     1.2880     0.5280 h1         1 1PE       0.056950
     21 H222         2.5030    -0.3510     0.3670 h1         1 1PE       0.056950
     22 H131         6.5790     0.8000    -1.5480 h1         1 1PE       0.057450
     23 H132         5.5460     2.3220    -1.4720 h1         1 1PE       0.057450
     24 H231         4.8690    -0.2820     0.0900 h1         1 1PE       0.053200
     25 H232         4.2630     0.0420    -1.6100 h1         1 1PE       0.053200
     26 H141         7.5120     2.0890     2.3900 h1         1 1PE       0.051200
     27 H142         7.0810     3.8620     2.5850 h1         1 1PE       0.051200
     28 H241         6.4180     3.7540     0.3510 h1         1 1PE       0.051200
     29 H242         4.9490     2.8470     0.9830 h1         1 1PE       0.051200
     30 H151         5.8780     0.1200     4.2320 h1         1 1PE       0.053200
     31 H152         7.6030     0.7360     4.2000 h1         1 1PE       0.053200
     32 H251         5.1420     2.4070     5.1750 h1         1 1PE       0.057450
     33 H252         6.8410     3.0230     4.8620 h1         1 1PE       0.057450
     34 H161         9.1950     0.4910     6.5790 h1         1 1PE       0.042950
     35 H162         9.3210    -1.2920     6.9820 h1         1 1PE       0.042950
     36 H261         6.9470    -1.4470     5.7210 h1         1 1PE       0.056950
     37 H262         7.0340    -0.8310     7.4560 h1         1 1PE       0.056950
     38 HO7         10.1730    -0.7700     4.9060 ho         1 1PE       0.411500
@<TRIPOS>BOND
     1     1     2 1   
     2     1    17 1   
     3     2     3 1   
     4     2    18 1   
     5     2    19 1   
     6     3     4 1   
     7     3    20 1   
     8     3    21 1   
     9     4     6 1   
    10     5     6 1   
    11     5     7 1   
    12     5    22 1   
    13     5    23 1   
    14     6    24 1   
    15     6    25 1   
    16     7     9 1   
    17     8     9 1   
    18     8    10 1   
    19     8    26 1   
    20     8    27 1   
    21     9    28 1   
    22     9    29 1   
    23    10    12 1   
    24    11    12 1   
    25    11    13 1   
    26    11    30 1   
    27    11    31 1   
    28    12    32 1   
    29    12    33 1   
    30    13    15 1   
    31    14    15 1   
    32    14    16 1   
    33    14    34 1   
    34    14    35 1   
    35    15    36 1   
    36    15    37 1   
    37    16    38 1   
@<TRIPOS>SUBSTRUCTURE
     1 1PE         1 TEMP              0 ****  ****    0 ROOT
