@<TRIPOS>MOLECULE
1PE
   38    37     1     0     0
SMALL
bcc


@<TRIPOS>ATOM
      1 OH2        -1.4010    1.1450    1.3250 oh        1 1PE     -0.599800
      2 C12        -0.9870    0.2000    0.3610 c3        1 1PE      0.131400
      3 C22         0.5160   -0.0510    0.4270 c3        1 1PE      0.087400
      4 OH3         0.7570   -0.6820    1.6830 os        1 1PE     -0.438600
      5 C13         2.2350   -1.7660    3.1800 c3        1 1PE      0.127400
      6 C23         2.1440   -0.9280    1.9090 c3        1 1PE      0.129400
      7 OH4         2.5710   -3.0890    2.7680 os        1 1PE     -0.428600
      8 C14         3.0860   -5.3330    3.3110 c3        1 1PE      0.127400
      9 C24         2.5360   -4.0180    3.8510 c3        1 1PE      0.127400
     10 OH5         4.4010   -5.4730    3.8450 os        1 1PE     -0.428600
     11 C15         6.4010   -6.7150    4.0650 c3        1 1PE      0.129400
     12 C25         5.0950   -6.5870    3.2880 c3        1 1PE      0.127400
     13 OH6         6.2600   -7.8540    4.9130 os        1 1PE     -0.438600
     14 C16         7.0850   -9.2720    6.6090 c3        1 1PE      0.131400
     15 C26         7.3480   -7.9900    5.8240 c3        1 1PE      0.087400
     16 OH7         7.1610  -10.4140    5.7810 oh        1 1PE     -0.599800
     17 HO2        -1.1250    0.8050    2.1870 ho        1 1PE      0.412000
     18 H121       -1.5440   -0.7650    0.5020 h1        1 1PE      0.053700
     19 H122       -1.2530    0.6560   -0.6290 h1        1 1PE      0.053700
     20 H221        1.0830    0.9150    0.3740 h1        1 1PE      0.039200
     21 H222        0.8410   -0.7260   -0.4070 h1        1 1PE      0.039200
     22 H131        1.2550   -1.7680    3.7280 h1        1 1PE      0.043200
     23 H132        3.0420   -1.3720    3.8510 h1        1 1PE      0.043200
     24 H231        2.5880   -1.4770    1.0370 h1        1 1PE      0.045200
     25 H232        2.6720    0.0520    2.0470 h1        1 1PE      0.045200
     26 H141        2.4540   -6.1930    3.6600 h1        1 1PE      0.044200
     27 H142        3.1210   -5.3210    2.1890 h1        1 1PE      0.044200
     28 H241        1.4740   -4.1470    4.1900 h1        1 1PE      0.044200
     29 H242        3.1630   -3.6440    4.7030 h1        1 1PE      0.044200
     30 H151        7.2600   -6.8850    3.3640 h1        1 1PE      0.045200
     31 H152        6.5910   -5.7950    4.6800 h1        1 1PE      0.045200
     32 H251        4.4780   -7.5190    3.3890 h1        1 1PE      0.043200
     33 H252        5.3030   -6.3870    2.2040 h1        1 1PE      0.043200
     34 H161        7.8860   -9.4160    7.3810 h1        1 1PE      0.053700
     35 H162        6.0790   -9.2190    7.1030 h1        1 1PE      0.053700
     36 H261        7.3810   -7.1060    6.5130 h1        1 1PE      0.039200
     37 H262        8.3110   -8.0630    5.2540 h1        1 1PE      0.039200
     38 HO7         6.5230  -10.2860    5.0670 ho        1 1PE      0.412000
@<TRIPOS>BOND
     1    1    2 1   
     2    1   17 1   
     3    2    3 1   
     4    2   18 1   
     5    2   19 1   
     6    3    4 1   
     7    3   20 1   
     8    3   21 1   
     9    4    6 1   
    10    5    6 1   
    11    5    7 1   
    12    5   22 1   
    13    5   23 1   
    14    6   24 1   
    15    6   25 1   
    16    7    9 1   
    17    8    9 1   
    18    8   10 1   
    19    8   26 1   
    20    8   27 1   
    21    9   28 1   
    22    9   29 1   
    23   10   12 1   
    24   11   12 1   
    25   11   13 1   
    26   11   30 1   
    27   11   31 1   
    28   12   32 1   
    29   12   33 1   
    30   13   15 1   
    31   14   15 1   
    32   14   16 1   
    33   14   34 1   
    34   14   35 1   
    35   15   36 1   
    36   15   37 1   
    37   16   38 1   
@<TRIPOS>SUBSTRUCTURE
     1 1PE         1 TEMP              0 ****  ****    0 ROOT
