@<TRIPOS>MOLECULE
molecule
   38    37     1     0     0
SMALL
bcc


@<TRIPOS>ATOM
      1 OH2          0.0000     0.0000     0.0000 oh         1 1PE      -0.598800
      2 C12          1.4280     0.0000     0.0000 c3         1 1PE       0.142400
      3 C22          1.9390     0.0000     1.4410 c3         1 1PE       0.128400
      4 OH3          1.4630    -1.1670     2.1160 os         1 1PE      -0.381600
      5 C13          1.4960    -2.3350     4.2310 c3         1 1PE       0.126400
      6 C23          1.9700    -1.1080     3.4500 c3         1 1PE       0.126400
      7 OH4          1.9720    -3.5200     3.5910 os         1 1PE      -0.384600
      8 C14          1.9750    -5.9320     3.7290 c3         1 1PE       0.126400
      9 C24          1.4980    -4.6250     4.3630 c3         1 1PE       0.126400
     10 OH5          3.4030    -5.9520     3.6970 os         1 1PE      -0.384600
     11 C15          5.3120    -7.2770     3.0330 c3         1 1PE       0.126400
     12 C25          3.7860    -7.1910     3.0970 c3         1 1PE       0.126400
     13 OH6          5.8490    -7.2010     4.3540 os         1 1PE      -0.381600
     14 C16          7.9120    -7.2120     5.6140 c3         1 1PE       0.142400
     15 C26          7.2710    -7.2860     4.2280 c3         1 1PE       0.128400
     16 OH7          7.4390    -8.2950     6.4160 oh         1 1PE      -0.598800
     17 HO2         -0.3140     0.0920    -0.8840 ho         1 1PE       0.398000
     18 H121         1.7890     0.8840    -0.5110 h1         1 1PE       0.027700
     19 H122         1.7890    -0.8840    -0.5110 h1         1 1PE       0.027700
     20 H221         1.5780     0.8850     1.9520 h1         1 1PE       0.031700
     21 H222         3.0220    -0.0000     1.4400 h1         1 1PE       0.031700
     22 H131         0.4130    -2.3490     4.2580 h1         1 1PE       0.033200
     23 H132         1.8820    -2.2900     5.2420 h1         1 1PE       0.033200
     24 H231         3.0530    -1.0920     3.4250 h1         1 1PE       0.032450
     25 H232         1.6070    -0.2090     3.9350 h1         1 1PE       0.032450
     26 H141         1.5900    -6.0050     2.7190 h1         1 1PE       0.033200
     27 H142         1.6150    -6.7700     4.3140 h1         1 1PE       0.033200
     28 H241         1.8830    -4.5520     5.3730 h1         1 1PE       0.033200
     29 H242         0.4150    -4.6100     4.3870 h1         1 1PE       0.033200
     30 H151         5.6020    -8.2170     2.5780 h1         1 1PE       0.032450
     31 H152         5.6960    -6.4560     2.4390 h1         1 1PE       0.032450
     32 H251         3.4020    -8.0130     3.6890 h1         1 1PE       0.033200
     33 H252         3.3790    -7.2470     2.0940 h1         1 1PE       0.033200
     34 H161         7.6470    -6.2720     6.0840 h1         1 1PE       0.027700
     35 H162         8.9890    -7.2760     5.5180 h1         1 1PE       0.027700
     36 H261         7.6290    -6.4640     3.6200 h1         1 1PE       0.031700
     37 H262         7.5360    -8.2250     3.7570 h1         1 1PE       0.031700
     38 HO7          7.9020    -8.3030     7.2380 ho         1 1PE       0.398000
@<TRIPOS>BOND
     1     1     2 1   
     2     1    17 1   
     3     2     3 1   
     4     2    18 1   
     5     2    19 1   
     6     3     4 1   
     7     3    20 1   
     8     3    21 1   
     9     4     6 1   
    10     5     6 1   
    11     5     7 1   
    12     5    22 1   
    13     5    23 1   
    14     6    24 1   
    15     6    25 1   
    16     7     9 1   
    17     8     9 1   
    18     8    10 1   
    19     8    26 1   
    20     8    27 1   
    21     9    28 1   
    22     9    29 1   
    23    10    12 1   
    24    11    12 1   
    25    11    13 1   
    26    11    30 1   
    27    11    31 1   
    28    12    32 1   
    29    12    33 1   
    30    13    15 1   
    31    14    15 1   
    32    14    16 1   
    33    14    34 1   
    34    14    35 1   
    35    15    36 1   
    36    15    37 1   
    37    16    38 1   
@<TRIPOS>SUBSTRUCTURE
     1 1PE         1 TEMP              0 ****  ****    0 ROOT
