@<TRIPOS>MOLECULE
1PF
   64    68     1     0     0
SMALL
bcc


@<TRIPOS>ATOM
      1 C10         -0.1640    -0.0010     0.1520 ca         1 1PF      -0.079800
      2 C14         -2.2370    -0.1140    -2.9360 ca         1 1PF      -0.055000
      3 C15         -3.4380    -0.3760    -3.6560 ca         1 1PF      -0.127000
      4 C16         -4.5160    -0.8550    -2.9650 ca         1 1PF      -0.088000
      5 C17         -4.4770    -1.0970    -1.5630 ca         1 1PF      -0.240000
      6 C20         -4.2530    -1.8320     1.1310 c3         1 1PF       0.129400
      7 C22         -2.5080    -2.9060     2.5840 c3         1 1PF      -0.075900
      8 C23         -2.0740    -3.2110     4.0030 c3         1 1PF      -0.074900
      9 C24         -1.9930    -1.9480     4.8370 c3         1 1PF      -0.082400
     10 C31          1.8210    -2.7130     5.2170 c3         1 1PF       0.167800
     11 C30          2.7000    -2.1900     4.0840 c3         1 1PF      -0.090400
     12 C28          1.1580    -0.4480     0.2590 ca         1 1PF      -0.070000
     13 C26         -3.7390    -0.8850     3.4010 c3         1 1PF      -0.075900
     14 C25         -3.3090    -1.1990     4.8190 c3         1 1PF      -0.074900
     15 C18         -3.3320    -0.8530    -0.8340 ca         1 1PF       0.184100
     16 N02          2.2660    -2.2820     6.5370 n3         1 1PF      -0.730600
     17 C03          2.4140    -0.8350     6.6310 c3         1 1PF       0.167800
     18 C04          3.3170    -0.2510     5.5480 c3         1 1PF      -0.090400
     19 C05          2.8820    -0.6810     4.1510 c3         1 1PF       0.142100
     20 O06          1.6480     0.0200     3.9080 os         1 1PF      -0.331900
     21 C07          1.1240    -0.0320     2.6350 ca         1 1PF       0.143100
     22 C08         -0.2040     0.4330     2.5370 ca         1 1PF      -0.188500
     23 C09         -0.8360     0.4440     1.3030 ca         1 1PF      -0.070000
     24 C11         -0.8480     0.0040    -1.1250 cc         1 1PF      -0.014300
     25 N12         -0.2350     0.4060    -2.3150 na         1 1PF       0.047800
     26 N13         -1.0210     0.3480    -3.3830 nc         1 1PF      -0.279400
     27 C21         -3.8280    -2.1500     2.5610 c3         1 1PF      -0.061700
     28 C27         -2.1750    -0.3500    -1.4890 ca         1 1PF      -0.135000
     29 C29          1.8060    -0.4680     1.4930 ca         1 1PF      -0.188500
     30 H1          -3.4710    -0.1920    -4.7380 ha         1 1PF       0.145000
     31 H2          -5.4590    -1.0670    -3.4920 ha         1 1PF       0.130000
     32 H3          -5.3860    -1.4820    -1.0830 ha         1 1PF       0.135000
     33 H4          -4.3870    -2.7790     0.5450 h1         1 1PF       0.041700
     34 H5          -5.2080    -1.2420     1.1280 h1         1 1PF       0.041700
     35 H7          -2.6150    -3.8610     2.0080 hc         1 1PF       0.048700
     36 H8          -2.7990    -3.9250     4.4730 hc         1 1PF       0.037950
     37 H9          -1.0700    -3.7110     3.9850 hc         1 1PF       0.037950
     38 H10         -1.7180    -2.2100     5.8920 hc         1 1PF       0.042700
     39 H11         -1.1820    -1.2850     4.4300 hc         1 1PF       0.042700
     40 H12          1.8500    -3.8390     5.2020 h1         1 1PF       0.038200
     41 H13          0.7540    -2.3930     5.0140 h1         1 1PF       0.038200
     42 H14          2.2230    -2.4750     3.1100 hc         1 1PF       0.059950
     43 H15          3.7120    -2.6670     4.1330 hc         1 1PF       0.059950
     44 H16          1.6960    -0.8080    -0.6310 ha         1 1PF       0.144500
     45 H17         -2.9980    -0.1860     2.9270 hc         1 1PF       0.048700
     46 H18         -4.7350    -0.3710     3.4120 hc         1 1PF       0.048700
     47 H19         -3.2060    -0.2440     5.3970 hc         1 1PF       0.037950
     48 H20         -4.0990    -1.8150     5.3240 hc         1 1PF       0.037950
     49 H21          1.8450    -2.4980     8.5800 h1         1 1PF       0.032033
     50 H22          0.3580    -2.4670     7.5240 h1         1 1PF       0.032033
     51 H23          1.4430    -3.9330     7.5300 h1         1 1PF       0.032033
     52 H25          2.8650    -0.6060     7.6370 h1         1 1PF       0.038200
     53 H26          1.4140    -0.3120     6.5720 h1         1 1PF       0.038200
     54 H27          3.2850     0.8660     5.6260 hc         1 1PF       0.059950
     55 H28          4.3740    -0.5900     5.6980 hc         1 1PF       0.059950
     56 H29          3.6470    -0.3450     3.3970 h1         1 1PF       0.046700
     57 H30         -0.7240     0.7780     3.4430 ha         1 1PF       0.146500
     58 H31         -1.8830     0.7810     1.2200 ha         1 1PF       0.144500
     59 H32          0.7040     0.7240    -2.4040 hn         1 1PF       0.322700
     60 H33         -4.6320    -2.8120     2.9920 hc         1 1PF       0.051700
     61 H34          2.8400    -0.8340     1.5540 ha         1 1PF       0.146500
     62 O19         -3.2200    -1.0380     0.5300 os         1 1PF      -0.330900
     63 C01          1.4270    -2.8130     7.5890 c3         1 1PF       0.156100
     64 H6          -1.7260    -2.2850     2.0720 hc         1 1PF       0.048700
@<TRIPOS>BOND
     1     1    12 ar  
     2     1    23 ar  
     3     1    24 1   
     4     2     3 ar  
     5     2    26 2   
     6     2    28 ar  
     7     3     4 ar  
     8     3    30 1   
     9     4     5 ar  
    10     4    31 1   
    11     5    15 ar  
    12     5    32 1   
    13     6    27 1   
    14     6    33 1   
    15     6    34 1   
    16     6    62 1   
    17     7     8 1   
    18     7    27 1   
    19     7    35 1   
    20     7    64 1   
    21     8     9 1   
    22     8    36 1   
    23     8    37 1   
    24     9    14 1   
    25     9    38 1   
    26     9    39 1   
    27    10    11 1   
    28    10    16 1   
    29    10    40 1   
    30    10    41 1   
    31    11    19 1   
    32    11    42 1   
    33    11    43 1   
    34    12    29 ar  
    35    12    44 1   
    36    13    14 1   
    37    13    27 1   
    38    13    45 1   
    39    13    46 1   
    40    14    47 1   
    41    14    48 1   
    42    15    28 ar  
    43    15    62 1   
    44    16    17 1   
    45    16    63 1   
    46    17    18 1   
    47    17    52 1   
    48    17    53 1   
    49    18    19 1   
    50    18    54 1   
    51    18    55 1   
    52    19    20 1   
    53    19    56 1   
    54    20    21 1   
    55    21    22 ar  
    56    21    29 ar  
    57    22    23 ar  
    58    22    57 1   
    59    23    58 1   
    60    24    25 1   
    61    24    28 2   
    62    25    26 1   
    63    25    59 1   
    64    27    60 1   
    65    29    61 1   
    66    49    63 1   
    67    50    63 1   
    68    51    63 1   
@<TRIPOS>SUBSTRUCTURE
     1 1PF         1 TEMP              0 ****  ****    0 ROOT
