@<TRIPOS>MOLECULE
molecule
   64    68     1     0     0
SMALL
bcc


@<TRIPOS>ATOM
      1 C10          0.0000     0.0000     0.0000 ca         1 1PF      -0.097800
      2 C14         -1.4620     0.4590    -3.4060 ca         1 1PF      -0.002000
      3 C15         -1.4150     1.1240    -4.6510 ca         1 1PF      -0.154000
      4 C16         -0.4550     2.0550    -4.8800 ca         1 1PF      -0.058000
      5 C17          0.5000     2.3800    -3.9160 ca         1 1PF      -0.283000
      6 C20          2.4050     3.1120    -2.1560 c3         1 1PF       0.138400
      7 C22          4.4690     4.3310    -1.4500 c3         1 1PF      -0.075400
      8 C23          5.4410     4.5760    -0.2950 c3         1 1PF      -0.077900
      9 C24          4.6830     5.1710     0.8930 c3         1 1PF      -0.081400
     10 C31          3.7910    -2.1640     4.4650 c3         1 1PF       0.165800
     11 C30          4.1170    -1.2600     3.2740 c3         1 1PF      -0.088900
     12 C28          1.3970     0.0000     0.0000 ca         1 1PF      -0.056500
     13 C26          2.6200     3.9520     0.1880 c3         1 1PF      -0.075400
     14 C25          3.5930     4.1970     1.3430 c3         1 1PF      -0.077900
     15 C18          0.5140     1.7770    -2.6930 ca         1 1PF       0.215100
     16 N02          4.3200    -1.5630     5.6960 n3         1 1PF      -0.735600
     17 C03          3.7000    -0.2580     5.9590 c3         1 1PF       0.165800
     18 C04          4.0240     0.7030     4.8120 c3         1 1PF      -0.088900
     19 C05          3.4920     0.1200     3.5000 c3         1 1PF       0.137100
     20 O06          2.0710    -0.0060     3.5730 os         1 1PF      -0.325900
     21 C07          1.3900    -0.0000     2.3980 ca         1 1PF       0.158100
     22 C08          0.0010    -0.0050     2.4030 ca         1 1PF      -0.200000
     23 C09         -0.6940     0.0010     1.2120 ca         1 1PF      -0.056500
     24 C11         -0.7390     0.0070    -1.2760 cc         1 1PF       0.029700
     25 N12         -1.8110    -0.7550    -1.5820 na         1 1PF       0.020800
     26 N13         -2.2430    -0.4690    -2.8810 nc         1 1PF      -0.281400
     27 C21          3.3780     3.3570    -1.0000 c3         1 1PF      -0.068700
     28 C27         -0.4610     0.8040    -2.3870 ca         1 1PF      -0.198000
     29 C29          2.0850     0.0000     1.1950 ca         1 1PF      -0.200000
     30 H1          -2.1430     0.8930    -5.4200 ha         1 1PF       0.140000
     31 H2          -0.4280     2.5600    -5.8380 ha         1 1PF       0.128000
     32 H3           1.2470     3.1300    -4.1450 ha         1 1PF       0.132000
     33 H4           1.8850     4.0330    -2.3920 h1         1 1PF       0.039700
     34 H5           2.9540     2.7740    -3.0250 h1         1 1PF       0.039700
     35 H7           4.0140     5.2700    -1.7420 hc         1 1PF       0.047200
     36 H8           6.2110     5.2680    -0.6140 hc         1 1PF       0.040950
     37 H9           5.8930     3.6360     0.0000 hc         1 1PF       0.040950
     38 H10          4.2280     6.1080     0.5960 hc         1 1PF       0.041700
     39 H11          5.3730     5.3410     1.7110 hc         1 1PF       0.041700
     40 H12          2.7170    -2.2720     4.5500 h1         1 1PF       0.041200
     41 H13          4.2470    -3.1350     4.3140 h1         1 1PF       0.041200
     42 H14          5.1920    -1.1590     3.1810 hc         1 1PF       0.059200
     43 H15          3.7110    -1.6960     2.3690 hc         1 1PF       0.059200
     44 H16          1.9400    -0.0000    -0.9380 ha         1 1PF       0.143000
     45 H17          1.8500     3.2600     0.5070 hc         1 1PF       0.047200
     46 H18          2.1690     4.8910    -0.1070 hc         1 1PF       0.047200
     47 H19          3.0550     4.6210     2.1820 hc         1 1PF       0.040950
     48 H20          4.0480     3.2580     1.6360 hc         1 1PF       0.040950
     49 H21          3.0920    -2.6480     7.0020 h1         1 1PF       0.032367
     50 H22          4.5780    -2.0180     7.7260 h1         1 1PF       0.032367
     51 H23          4.6460    -3.4090     6.6340 h1         1 1PF       0.032367
     52 H25          2.6260    -0.3790     6.0340 h1         1 1PF       0.041200
     53 H26          4.0890     0.1450     6.8860 h1         1 1PF       0.041200
     54 H27          3.5510     1.6600     4.9990 hc         1 1PF       0.059200
     55 H28          5.0970     0.8310     4.7420 hc         1 1PF       0.059200
     56 H29          3.7610     0.7750     2.6800 h1         1 1PF       0.049700
     57 H30         -0.5370    -0.0050     3.3430 ha         1 1PF       0.144500
     58 H31         -1.7780    -0.0010     1.2170 ha         1 1PF       0.143000
     59 H32         -2.2330    -1.4260    -0.9700 hn         1 1PF       0.332700
     60 H33          3.8340     2.4210    -0.7020 hc         1 1PF       0.059700
     61 H34          3.1680    -0.0000     1.1950 ha         1 1PF       0.144500
     62 O19          1.4550     2.1140    -1.7750 os         1 1PF      -0.330900
     63 C01          4.1480    -2.4690     6.8400 c3         1 1PF       0.154100
     64 H6           5.0060     3.9070    -2.2890 hc         1 1PF       0.047200
@<TRIPOS>BOND
     1    18    19 1
     2    18    17 1
     3    19    11 1
     4    19    20 1
     5    11    10 1
     6    17    16 1
     7    16    10 1
     8    16    63 1
     9    20    21 1
    10    29    21 ar
    11    29    12 ar
    12    21    22 ar
    13    12     1 ar
    14    22    23 ar
    15     1    23 ar
    16     1    24 1
    17    25    24 1
    18    25    26 1
    19    24    28 2
    20     8     7 1
    21     8     9 1
    22     7    27 1
    23    26     2 2
    24     9    14 1
    25    28     2 ar
    26    28    15 ar
    27     2     3 ar
    28    62    15 1
    29    62     6 1
    30    15     5 ar
    31    27     6 1
    32    27    13 1
    33    14    13 1
    34     3     4 ar
    35     5     4 ar
    36     3    30 1
    37     4    31 1
    38     5    32 1
    39     6    33 1
    40     6    34 1
    41     7    64 1
    42     7    35 1
    43     8    36 1
    44     8    37 1
    45     9    38 1
    46     9    39 1
    47    10    40 1
    48    10    41 1
    49    11    42 1
    50    11    43 1
    51    12    44 1
    52    13    45 1
    53    13    46 1
    54    14    47 1
    55    14    48 1
    56    63    49 1
    57    63    50 1
    58    63    51 1
    59    17    52 1
    60    17    53 1
    61    18    54 1
    62    18    55 1
    63    19    56 1
    64    22    57 1
    65    23    58 1
    66    25    59 1
    67    27    60 1
    68    29    61 1
@<TRIPOS>SUBSTRUCTURE
     1 1PF         1 TEMP              0 ****  ****    0 ROOT
