@<TRIPOS>MOLECULE
1PF
   64    68     1     0     0
SMALL
bcc


@<TRIPOS>ATOM
      1 C10          0.0000     0.0000     0.0000 ca         1 1PF      -0.085800
      2 C14         -1.4620     0.4590    -3.4060 ca         1 1PF       0.035000
      3 C15         -1.4150     1.1240    -4.6510 ca         1 1PF      -0.134000
      4 C16         -0.4550     2.0550    -4.8800 ca         1 1PF      -0.027000
      5 C17          0.5000     2.3800    -3.9160 ca         1 1PF      -0.279000
      6 C20          2.4050     3.1120    -2.1560 c3         1 1PF       0.198400
      7 C22          4.4690     4.3310    -1.4500 c3         1 1PF      -0.023900
      8 C23          5.4410     4.5760    -0.2950 c3         1 1PF      -0.022400
      9 C24          4.6830     5.1710     0.8930 c3         1 1PF      -0.026400
     10 C31          3.7910    -2.1640     4.4650 c3         1 1PF       0.155800
     11 C30          4.1170    -1.2600     3.2740 c3         1 1PF      -0.042900
     12 C28          1.3970     0.0000     0.0000 ca         1 1PF      -0.034500
     13 C26          2.6200     3.9520     0.1880 c3         1 1PF      -0.023900
     14 C25          3.5930     4.1970     1.3430 c3         1 1PF      -0.022400
     15 C18          0.5140     1.7770    -2.6930 ca         1 1PF       0.230100
     16 N02          4.3200    -1.5630     5.6960 n3         1 1PF      -0.547600
     17 C03          3.7000    -0.2580     5.9590 c3         1 1PF       0.155800
     18 C04          4.0240     0.7030     4.8120 c3         1 1PF      -0.042900
     19 C05          3.4920     0.1200     3.5000 c3         1 1PF       0.162100
     20 O06          2.0710    -0.0060     3.5730 os         1 1PF      -0.298900
     21 C07          1.3900    -0.0000     2.3980 ca         1 1PF       0.164100
     22 C08          0.0010    -0.0050     2.4030 ca         1 1PF      -0.184500
     23 C09         -0.6940     0.0010     1.2120 ca         1 1PF      -0.034500
     24 C11         -0.7390     0.0070    -1.2760 cc         1 1PF      -0.152300
     25 N12         -1.8110    -0.7550    -1.5820 na         1 1PF       0.547800
     26 N13         -2.2430    -0.4690    -2.8810 nc         1 1PF      -0.454400
     27 C21          3.3780     3.3570    -1.0000 c3         1 1PF      -0.056700
     28 C27         -0.4610     0.8040    -2.3870 ca         1 1PF      -0.211000
     29 C29          2.0850     0.0000     1.1950 ca         1 1PF      -0.184500
     30 H1          -2.1430     0.8930    -5.4200 ha         1 1PF       0.114000
     31 H2          -0.4280     2.5600    -5.8380 ha         1 1PF       0.096000
     32 H3           1.2470     3.1300    -4.1450 ha         1 1PF       0.121000
     33 H4           1.8850     4.0330    -2.3920 h1         1 1PF       0.007200
     34 H5           2.9540     2.7740    -3.0250 h1         1 1PF       0.007200
     35 H7           4.0140     5.2700    -1.7420 hc         1 1PF       0.020450
     36 H8           6.2110     5.2680    -0.6140 hc         1 1PF       0.012700
     37 H9           5.8930     3.6360     0.0000 hc         1 1PF       0.012700
     38 H10          4.2280     6.1080     0.5960 hc         1 1PF       0.014200
     39 H11          5.3730     5.3410     1.7110 hc         1 1PF       0.014200
     40 H12          2.7170    -2.2720     4.5500 h1         1 1PF       0.014450
     41 H13          4.2470    -3.1350     4.3140 h1         1 1PF       0.014450
     42 H14          5.1920    -1.1590     3.1810 hc         1 1PF       0.029700
     43 H15          3.7110    -1.6960     2.3690 hc         1 1PF       0.029700
     44 H16          1.9400    -0.0000    -0.9380 ha         1 1PF       0.112000
     45 H17          1.8500     3.2600     0.5070 hc         1 1PF       0.020450
     46 H18          2.1690     4.8910    -0.1070 hc         1 1PF       0.020450
     47 H19          3.0550     4.6210     2.1820 hc         1 1PF       0.012700
     48 H20          4.0480     3.2580     1.6360 hc         1 1PF       0.012700
     49 H21          3.0920    -2.6480     7.0020 h1         1 1PF       0.000367
     50 H22          4.5780    -2.0180     7.7260 h1         1 1PF       0.000367
     51 H23          4.6460    -3.4090     6.6340 h1         1 1PF       0.000367
     52 H25          2.6260    -0.3790     6.0340 h1         1 1PF       0.014450
     53 H26          4.0890     0.1450     6.8860 h1         1 1PF       0.014450
     54 H27          3.5510     1.6600     4.9990 hc         1 1PF       0.029700
     55 H28          5.0970     0.8310     4.7420 hc         1 1PF       0.029700
     56 H29          3.7610     0.7750     2.6800 h1         1 1PF       0.023700
     57 H30         -0.5370    -0.0050     3.3430 ha         1 1PF       0.124000
     58 H31         -1.7780    -0.0010     1.2170 ha         1 1PF       0.112000
     59 H32         -2.2330    -1.4260    -0.9700 hn         1 1PF       0.142700
     60 H33          3.8340     2.4210    -0.7020 hc         1 1PF       0.035700
     61 H34          3.1680    -0.0000     1.1950 ha         1 1PF       0.124000
     62 O19          1.4550     2.1140    -1.7750 os         1 1PF      -0.304900
     63 C01          4.1480    -2.4690     6.8400 c3         1 1PF       0.189100
     64 H6           5.0060     3.9070    -2.2890 hc         1 1PF       0.020450
@<TRIPOS>BOND
     1     1    12 ar  
     2     1    23 ar  
     3     1    24 1   
     4     2     3 ar  
     5     2    26 2   
     6     2    28 ar  
     7     3     4 ar  
     8     3    30 1   
     9     4     5 ar  
    10     4    31 1   
    11     5    15 ar  
    12     5    32 1   
    13     6    27 1   
    14     6    33 1   
    15     6    34 1   
    16     6    62 1   
    17     7     8 1   
    18     7    27 1   
    19     7    35 1   
    20     7    64 1   
    21     8     9 1   
    22     8    36 1   
    23     8    37 1   
    24     9    14 1   
    25     9    38 1   
    26     9    39 1   
    27    10    11 1   
    28    10    16 1   
    29    10    40 1   
    30    10    41 1   
    31    11    19 1   
    32    11    42 1   
    33    11    43 1   
    34    12    29 ar  
    35    12    44 1   
    36    13    14 1   
    37    13    27 1   
    38    13    45 1   
    39    13    46 1   
    40    14    47 1   
    41    14    48 1   
    42    15    28 ar  
    43    15    62 1   
    44    16    17 1   
    45    16    63 1   
    46    17    18 1   
    47    17    52 1   
    48    17    53 1   
    49    18    19 1   
    50    18    54 1   
    51    18    55 1   
    52    19    20 1   
    53    19    56 1   
    54    20    21 1   
    55    21    22 ar  
    56    21    29 ar  
    57    22    23 ar  
    58    22    57 1   
    59    23    58 1   
    60    24    25 1   
    61    24    28 2   
    62    25    26 1   
    63    25    59 1   
    64    27    60 1   
    65    29    61 1   
    66    49    63 1   
    67    50    63 1   
    68    51    63 1   
@<TRIPOS>SUBSTRUCTURE
     1 1PF         1 TEMP              0 ****  ****    0 ROOT
