@<TRIPOS>MOLECULE
1PG
   41    40     1     0     0
SMALL
bcc


@<TRIPOS>ATOM
      1 C2           1.1100     0.4420     0.7770 c3         1 1PG       0.123400
      2 C1           3.1260    -0.7270     0.3700 c3         1 1PG       0.116700
      3 O1           1.8920    -0.7150     1.0670 os         1 1PG      -0.424600
      4 O2           0.1110     1.3320     2.7290 os         1 1PG      -0.433600
      5 C3          -0.1110     0.3820     1.6890 c3         1 1PG       0.126400
      6 C4          -0.9040     1.2870     3.7300 c3         1 1PG       0.093400
      7 C5          -0.5590     2.3540     4.7640 c3         1 1PG       0.129400
      8 O3           0.2640     1.8390     5.7980 os         1 1PG      -0.425600
      9 C6           1.6290     1.6810     5.4070 c3         1 1PG       0.119400
     10 C7           2.3460     1.0480     6.5940 c3         1 1PG       0.126400
     11 O4           3.1390     2.0750     7.1880 os         1 1PG      -0.433600
     12 C8           3.7460     1.6550     8.4070 c3         1 1PG       0.094400
     13 C9           4.5140     2.8510     8.9610 c3         1 1PG       0.131400
     14 O5           5.8490     2.8880     8.4800 os         1 1PG      -0.437600
     15 C10          5.9560     3.3790     7.1430 c3         1 1PG       0.081400
     16 C11          7.4180     3.2140     6.7450 c3         1 1PG       0.131400
     17 O6           8.2660     4.0520     7.5030 oh         1 1PG      -0.601800
     18 H21          0.7950     0.4140    -0.2990 h1         1 1PG       0.042700
     19 H22          1.7080     1.3710     0.9710 h1         1 1PG       0.042700
     20 H11          2.9550    -0.7210    -0.7350 h1         1 1PG       0.033367
     21 H12          3.7530     0.1510     0.6630 h1         1 1PG       0.033367
     22 H13          3.6160    -1.6820     0.6860 h1         1 1PG       0.033367
     23 H31         -0.2340    -0.6460     2.1220 h1         1 1PG       0.043200
     24 H32         -1.0360     0.6660     1.1220 h1         1 1PG       0.043200
     25 H41         -1.9000     1.5080     3.2620 h1         1 1PG       0.039200
     26 H42         -0.9280     0.2700     4.2020 h1         1 1PG       0.039200
     27 H51         -0.0730     3.2360     4.2700 h1         1 1PG       0.060200
     28 H52         -1.4940     2.6730     5.2990 h1         1 1PG       0.060200
     29 H61          2.0670     2.6850     5.1620 h1         1 1PG       0.054700
     30 H62          1.6850     1.0150     4.5060 h1         1 1PG       0.054700
     31 H71          1.6090     0.6480     7.3390 h1         1 1PG       0.042700
     32 H72          3.0200     0.2200     6.2480 h1         1 1PG       0.042700
     33 H81          2.9520     1.3370     9.1340 h1         1 1PG       0.039200
     34 H82          4.4390     0.7950     8.2080 h1         1 1PG       0.039200
     35 H91          4.6320     2.7370    10.0720 h1         1 1PG       0.061200
     36 H92          3.9770     3.8060     8.7210 h1         1 1PG       0.061200
     37 H101         5.2860     2.7900     6.4630 h1         1 1PG       0.050200
     38 H102         5.6570     4.4600     7.1240 h1         1 1PG       0.050200
     39 H111         7.5610     3.5400     5.6810 h1         1 1PG       0.050200
     40 H112         7.7310     2.1430     6.8640 h1         1 1PG       0.050200
     41 HO6          8.0960     3.8560     8.4340 ho         1 1PG       0.412000
@<TRIPOS>BOND
     1     1     3 1   
     2     1     5 1   
     3     1    18 1   
     4     1    19 1   
     5     2     3 1   
     6     2    20 1   
     7     2    21 1   
     8     2    22 1   
     9     4     5 1   
    10     4     6 1   
    11     5    23 1   
    12     5    24 1   
    13     6     7 1   
    14     6    25 1   
    15     6    26 1   
    16     7     8 1   
    17     7    27 1   
    18     7    28 1   
    19     8     9 1   
    20     9    10 1   
    21     9    29 1   
    22     9    30 1   
    23    10    11 1   
    24    10    31 1   
    25    10    32 1   
    26    11    12 1   
    27    12    13 1   
    28    12    33 1   
    29    12    34 1   
    30    13    14 1   
    31    13    35 1   
    32    13    36 1   
    33    14    15 1   
    34    15    16 1   
    35    15    37 1   
    36    15    38 1   
    37    16    17 1   
    38    16    39 1   
    39    16    40 1   
    40    17    41 1   
@<TRIPOS>SUBSTRUCTURE
     1 1PG         1 TEMP              0 ****  ****    0 ROOT
