@<TRIPOS>MOLECULE
molecule
   41    40     1     0     0
SMALL
bcc


@<TRIPOS>ATOM
      1 C2           0.0000     0.0000     0.0000 c3         1 1PG       0.126400
      2 C1           1.8420    -0.0010    -1.3680 c3         1 1PG       0.114700
      3 O1           1.4290     0.0000     0.0000 os         1 1PG      -0.396600
      4 O2          -0.0340     1.1670     2.1150 os         1 1PG      -0.383600
      5 C3          -0.5100     0.0000     1.4420 c3         1 1PG       0.125400
      6 C4          -0.5410     1.1090     3.4500 c3         1 1PG       0.126400
      7 C5          -0.0660     2.3370     4.2290 c3         1 1PG       0.126400
      8 O3          -0.5430     3.5220     3.5890 os         1 1PG      -0.384600
      9 C6          -0.0690     4.6270     4.3610 c3         1 1PG       0.126400
     10 C7          -0.5470     5.9330     3.7250 c3         1 1PG       0.126400
     11 O4          -1.9750     5.9530     3.6940 os         1 1PG      -0.384600
     12 C8          -2.3590     7.1910     3.0940 c3         1 1PG       0.126400
     13 C9          -3.8840     7.2770     3.0300 c3         1 1PG       0.126400
     14 O5          -4.4220     7.2020     4.3520 os         1 1PG      -0.381600
     15 C10         -5.8420     7.2870     4.2250 c3         1 1PG       0.128400
     16 C11         -6.4820     7.2130     5.6120 c3         1 1PG       0.142400
     17 O6          -6.0100     8.2970     6.4140 oh         1 1PG      -0.598800
     18 H21         -0.3610    -0.8850    -0.5110 h1         1 1PG       0.033700
     19 H22         -0.3610     0.8840    -0.5110 h1         1 1PG       0.033700
     20 H11          1.4560     0.8830    -1.8620 h1         1 1PG       0.029367
     21 H12          1.4590    -0.8860    -1.8610 h1         1 1PG       0.029367
     22 H13          2.9240     0.0010    -1.4190 h1         1 1PG       0.029367
     23 H31         -0.1480    -0.8840     1.9530 h1         1 1PG       0.032200
     24 H32         -1.5930    -0.0010     1.4420 h1         1 1PG       0.032200
     25 H41         -1.6240     1.0940     3.4250 h1         1 1PG       0.032700
     26 H42         -0.1790     0.2110     3.9350 h1         1 1PG       0.032700
     27 H51         -0.4510     2.2940     5.2410 h1         1 1PG       0.033200
     28 H52          1.0170     2.3510     4.2560 h1         1 1PG       0.033200
     29 H61         -0.4550     4.5540     5.3700 h1         1 1PG       0.033200
     30 H62          1.0140     4.6120     4.3860 h1         1 1PG       0.033200
     31 H71         -0.1870     6.7720     4.3090 h1         1 1PG       0.033200
     32 H72         -0.1620     6.0050     2.7150 h1         1 1PG       0.033200
     33 H81         -1.9520     7.2480     2.0910 h1         1 1PG       0.033200
     34 H82         -1.9750     8.0140     3.6860 h1         1 1PG       0.033200
     35 H91         -4.2670     6.4560     2.4370 h1         1 1PG       0.032700
     36 H92         -4.1740     8.2170     2.5750 h1         1 1PG       0.032700
     37 H101        -6.1080     8.2260     3.7550 h1         1 1PG       0.031700
     38 H102        -6.2010     6.4650     3.6180 h1         1 1PG       0.031700
     39 H111        -7.5590     7.2760     5.5170 h1         1 1PG       0.027700
     40 H112        -6.2160     6.2740     6.0830 h1         1 1PG       0.027700
     41 HO6         -6.4720     8.3050     7.2360 ho         1 1PG       0.398000
@<TRIPOS>BOND
     1     1     3 1
     2     1     5 1
     3     1    18 1
     4     1    19 1
     5     2     3 1
     6     2    20 1
     7     2    21 1
     8     2    22 1
     9     4     5 1
    10     4     6 1
    11     5    23 1
    12     5    24 1
    13     6     7 1
    14     6    25 1
    15     6    26 1
    16     7     8 1
    17     7    27 1
    18     7    28 1
    19     8     9 1
    20     9    10 1
    21     9    29 1
    22     9    30 1
    23    10    11 1
    24    10    31 1
    25    10    32 1
    26    11    12 1
    27    12    13 1
    28    12    33 1
    29    12    34 1
    30    13    14 1
    31    13    35 1
    32    13    36 1
    33    14    15 1
    34    15    16 1
    35    15    37 1
    36    15    38 1
    37    16    17 1
    38    16    39 1
    39    16    40 1
    40    17    41 1
@<TRIPOS>SUBSTRUCTURE
     1 1PG         1 TEMP              0 ****  ****    0 ROOT
