@<TRIPOS>MOLECULE
1PG
   41    40     1     0     0
SMALL
bcc


@<TRIPOS>ATOM
      1 C2          2.0710    0.1740   -0.3050 c3        1 1PG      0.123400
      2 C1          3.6450   -1.5920   -0.2880 c3        1 1PG      0.117700
      3 O1          2.2760   -1.2350   -0.2150 os        1 1PG     -0.425600
      4 O2          0.4910    1.0650    1.2120 os        1 1PG     -0.429600
      5 C3          0.5870    0.4140   -0.0530 c3        1 1PG      0.127400
      6 C4         -0.8590    1.1970    1.6510 c3        1 1PG      0.127400
      7 C5         -0.8230    2.0540    2.9120 c3        1 1PG      0.127400
      8 O3         -1.3420    3.3320    2.5480 os        1 1PG     -0.429600
      9 C6         -1.2130    4.2870    3.6000 c3        1 1PG      0.127400
     10 C7         -1.9550    5.5380    3.1430 c3        1 1PG      0.127400
     11 O4         -3.1630    5.5910    3.8990 os        1 1PG     -0.428600
     12 C8         -4.0360    6.6250    3.4500 c3        1 1PG      0.127400
     13 C9         -5.1940    6.6750    4.4420 c3        1 1PG      0.128400
     14 O5         -5.0100    7.8550    5.2220 os        1 1PG     -0.438600
     15 C10        -5.9300    7.9360    6.3090 c3        1 1PG      0.087400
     16 C11        -5.6490    9.2650    7.0030 c3        1 1PG      0.131400
     17 O6         -5.9690   10.3630    6.1740 oh        1 1PG     -0.600800
     18 H21         2.3570    0.5220   -1.3320 h1        1 1PG      0.042700
     19 H22         2.6970    0.7070    0.4600 h1        1 1PG      0.042700
     20 H11         3.6470   -2.7080   -0.2150 h1        1 1PG      0.032700
     21 H12         4.2160   -1.1420    0.5620 h1        1 1PG      0.032700
     22 H13         4.0880   -1.2620   -1.2600 h1        1 1PG      0.032700
     23 H31         0.1550    1.0820   -0.8440 h1        1 1PG      0.043200
     24 H32         0.0250   -0.5580   -0.0330 h1        1 1PG      0.043200
     25 H41        -1.2720    0.1800    1.8820 h1        1 1PG      0.043700
     26 H42        -1.4810    1.6860    0.8540 h1        1 1PG      0.043700
     27 H51        -1.4740    1.6070    3.7080 h1        1 1PG      0.043700
     28 H52         0.2270    2.1560    3.2950 h1        1 1PG      0.043700
     29 H61        -1.6580    3.8830    4.5480 h1        1 1PG      0.043700
     30 H62        -0.1260    4.5140    3.7600 h1        1 1PG      0.043700
     31 H71        -2.1860    5.4860    2.0460 h1        1 1PG      0.044200
     32 H72        -1.3460    6.4550    3.3580 h1        1 1PG      0.044200
     33 H81        -4.4120    6.3710    2.4240 h1        1 1PG      0.043200
     34 H82        -3.4930    7.6070    3.4210 h1        1 1PG      0.043200
     35 H91        -5.1910    5.7680    5.1030 h1        1 1PG      0.045200
     36 H92        -6.1730    6.7440    3.8990 h1        1 1PG      0.045200
     37 H101       -6.9810    7.9060    5.9170 h1        1 1PG      0.039200
     38 H102       -5.7640    7.0800    7.0130 h1        1 1PG      0.039200
     39 H111       -4.5720    9.3160    7.3130 h1        1 1PG      0.053200
     40 H112       -6.3140    9.3730    7.9000 h1        1 1PG      0.053200
     41 HO6        -5.4570   10.2600    5.3610 ho        1 1PG      0.412000
@<TRIPOS>BOND
     1    1    3 1   
     2    1    5 1   
     3    1   18 1   
     4    1   19 1   
     5    2    3 1   
     6    2   20 1   
     7    2   21 1   
     8    2   22 1   
     9    4    5 1   
    10    4    6 1   
    11    5   23 1   
    12    5   24 1   
    13    6    7 1   
    14    6   25 1   
    15    6   26 1   
    16    7    8 1   
    17    7   27 1   
    18    7   28 1   
    19    8    9 1   
    20    9   10 1   
    21    9   29 1   
    22    9   30 1   
    23   10   11 1   
    24   10   31 1   
    25   10   32 1   
    26   11   12 1   
    27   12   13 1   
    28   12   33 1   
    29   12   34 1   
    30   13   14 1   
    31   13   35 1   
    32   13   36 1   
    33   14   15 1   
    34   15   16 1   
    35   15   37 1   
    36   15   38 1   
    37   16   17 1   
    38   16   39 1   
    39   16   40 1   
    40   17   41 1   
@<TRIPOS>SUBSTRUCTURE
     1 1PG         1 TEMP              0 ****  ****    0 ROOT
