@<TRIPOS>MOLECULE
1PH
   48    51     1     0     0
SMALL
bcc


@<TRIPOS>ATOM
      1 C10          0.0000     0.0000     0.0000 cc         1 1PH      -0.282300
      2 N11          1.3500     0.0000     0.0000 na         1 1PH       0.559800
      3 N12          1.8240     0.0000     1.3160 nc         1 1PH      -0.383400
      4 C13          0.7990    -0.0020     2.1510 ca         1 1PH      -0.020000
      5 C14          0.6710    -0.0070     3.5570 ca         1 1PH      -0.039000
      6 C15         -0.5640    -0.0160     4.1180 ca         1 1PH      -0.083000
      7 C16         -1.7280    -0.0210     3.3370 ca         1 1PH      -0.054400
      8 C22         -4.7610     2.6540     7.1370 ca         1 1PH      -0.084500
      9 C20         -4.4510     0.5110     5.8810 c3         1 1PH      -0.032100
     10 C21         -4.3800     1.3250     7.1460 ca         1 1PH      -0.083300
     11 C23         -4.6960     3.4010     8.2970 ca         1 1PH      -0.094500
     12 N01         -1.8840     3.3430    -4.4370 nz         1 1PH      -0.132500
     13 O03         -1.6840     1.3400    -5.8650 o          1 1PH      -0.495300
     14 O04          0.3090     2.2320    -4.6500 o          1 1PH      -0.495300
     15 C05         -1.4190     0.8490    -3.3700 ca         1 1PH      -0.214500
     16 C06         -2.5100    -0.0010    -3.4240 ca         1 1PH       0.000000
     17 C07         -2.7880    -0.8500    -2.3670 ca         1 1PH      -0.097000
     18 C08         -1.9760    -0.8550    -1.2520 ca         1 1PH       0.009000
     19 C09         -0.8730    -0.0010    -1.1900 ca         1 1PH       0.007200
     20 N17         -2.9760    -0.0310     3.9710 ns         1 1PH      -0.055100
     21 O19         -2.2420     1.2920     5.5940 o          1 1PH      -0.607100
     22 C24         -4.2530     2.8190     9.4700 ca         1 1PH      -0.091000
     23 C25         -3.8780     1.4880     9.4810 ca         1 1PH      -0.094500
     24 C26         -3.9330     0.7440     8.3180 ca         1 1PH      -0.084500
     25 C27         -1.6710    -0.0170     1.9740 ca         1 1PH      -0.134000
     26 C28         -0.4210    -0.0070     1.3320 ca         1 1PH      -0.124000
     27 C29         -0.5960     0.8510    -2.2640 ca         1 1PH      -0.007000
     28 H1           1.9250    -0.0000    -0.8190 hn         1 1PH       0.143700
     29 H2           1.5540    -0.0030     4.1840 ha         1 1PH       0.124000
     30 H3          -0.6520    -0.0220     5.1970 ha         1 1PH       0.148000
     31 H5          -5.2530     0.8850     5.2560 hc         1 1PH       0.031700
     32 H6          -4.6400    -0.5260     6.1290 hc         1 1PH       0.031700
     33 H7          -4.9930     4.4430     8.2880 ha         1 1PH       0.104500
     34 H8          -1.5620     3.7580    -3.5850 hn         1 1PH       0.314133
     35 H9          -2.8650     3.1560    -4.3670 hn         1 1PH       0.314133
     36 H10         -3.1510    -0.0010    -4.2970 ha         1 1PH       0.126000
     37 H11         -3.6440    -1.5120    -2.4160 ha         1 1PH       0.132000
     38 H12         -2.1940    -1.5200    -0.4250 ha         1 1PH       0.136000
     39 H13         -3.7410    -0.5300     3.5620 hn         1 1PH       0.168500
     40 H14         -4.2060     3.4030    10.3810 ha         1 1PH       0.105000
     41 H15         -3.5290     1.0320    10.4000 ha         1 1PH       0.104500
     42 H16         -3.6360    -0.2980     8.3270 ha         1 1PH       0.099500
     43 H17         -2.5840    -0.0210     1.3910 ha         1 1PH       0.098000
     44 H18          0.2160     1.5640    -2.1940 ha         1 1PH       0.124000
     45 H013        -1.7520     3.9860    -5.1930 hn         1 1PH       0.314133
     46 S02         -1.0760     1.9260    -4.7220 sy         1 1PH       0.937200
     47 C18         -3.1440     0.6190     5.1390 c          1 1PH       0.558100
     48 H4          -5.1080     3.1110     6.2180 ha         1 1PH       0.099500
@<TRIPOS>BOND
     1     1     2 1   
     2     1    19 1   
     3     1    26 2   
     4     2     3 1   
     5     2    28 1   
     6     3     4 2   
     7     4     5 ar  
     8     4    26 ar  
     9     5     6 ar  
    10     5    29 1   
    11     6     7 ar  
    12     6    30 1   
    13     7    20 1   
    14     7    25 ar  
    15     8    10 ar  
    16     8    11 ar  
    17     8    48 1   
    18     9    10 1   
    19     9    31 1   
    20     9    32 1   
    21     9    47 1   
    22    10    24 ar  
    23    11    22 ar  
    24    11    33 1   
    25    12    34 1   
    26    12    35 1   
    27    12    45 1   
    28    12    46 1   
    29    13    46 2   
    30    14    46 2   
    31    15    16 ar  
    32    15    27 ar  
    33    15    46 1   
    34    16    17 ar  
    35    16    36 1   
    36    17    18 ar  
    37    17    37 1   
    38    18    19 ar  
    39    18    38 1   
    40    19    27 ar  
    41    20    39 1   
    42    20    47 1   
    43    21    47 2   
    44    22    23 ar  
    45    22    40 1   
    46    23    24 ar  
    47    23    41 1   
    48    24    42 1   
    49    25    26 ar  
    50    25    43 1   
    51    27    44 1   
@<TRIPOS>SUBSTRUCTURE
     1 1PH         1 TEMP              0 ****  ****    0 ROOT
