@<TRIPOS>MOLECULE
molecule
   48    51     1     0     0
SMALL
bcc


@<TRIPOS>ATOM
      1 C10          0.0000     0.0000     0.0000 cc         1 1PH      -0.092300
      2 N11          1.3500     0.0000     0.0000 na         1 1PH       0.028800
      3 N12          1.8240     0.0000     1.3160 nc         1 1PH      -0.219400
      4 C13          0.7990    -0.0020     2.1510 ca         1 1PH      -0.049000
      5 C14          0.6710    -0.0070     3.5570 ca         1 1PH      -0.073000
      6 C15         -0.5640    -0.0160     4.1180 ca         1 1PH      -0.101000
      7 C16         -1.7280    -0.0210     3.3370 ca         1 1PH       0.087600
      8 C22         -4.7610     2.6540     7.1370 ca         1 1PH      -0.110000
      9 C20         -4.4510     0.5110     5.8810 c3         1 1PH      -0.104100
     10 C21         -4.3800     1.3250     7.1460 ca         1 1PH      -0.080300
     11 C23         -4.6960     3.4010     8.2970 ca         1 1PH      -0.123000
     12 N01         -1.8840     3.3430    -4.4370 nz         1 1PH      -0.806500
     13 O03         -1.6840     1.3400    -5.8650 o          1 1PH      -0.517800
     14 O04          0.3090     2.2320    -4.6500 o          1 1PH      -0.517800
     15 C05         -1.4190     0.8490    -3.3700 ca         1 1PH      -0.333500
     16 C06         -2.5100    -0.0010    -3.4240 ca         1 1PH      -0.036000
     17 C07         -2.7880    -0.8500    -2.3670 ca         1 1PH      -0.124000
     18 C08         -1.9760    -0.8550    -1.2520 ca         1 1PH      -0.018000
     19 C09         -0.8730    -0.0010    -1.1900 ca         1 1PH      -0.008800
     20 N17         -2.9760    -0.0310     3.9710 ns         1 1PH      -0.489100
     21 O19         -2.2420     1.2920     5.5940 o          1 1PH      -0.568100
     22 C24         -4.2530     2.8190     9.4700 ca         1 1PH      -0.116000
     23 C25         -3.8780     1.4880     9.4810 ca         1 1PH      -0.123000
     24 C26         -3.9330     0.7440     8.3180 ca         1 1PH      -0.110000
     25 C27         -1.6710    -0.0170     1.9740 ca         1 1PH      -0.165000
     26 C28         -0.4210    -0.0070     1.3320 ca         1 1PH      -0.119000
     27 C29         -0.5960     0.8510    -2.2640 ca         1 1PH      -0.035000
     28 H1           1.9250    -0.0000    -0.8190 hn         1 1PH       0.335700
     29 H2           1.5540    -0.0030     4.1840 ha         1 1PH       0.160000
     30 H3          -0.6520    -0.0220     5.1970 ha         1 1PH       0.176000
     31 H5          -5.2530     0.8850     5.2560 hc         1 1PH       0.068700
     32 H6          -4.6400    -0.5260     6.1290 hc         1 1PH       0.068700
     33 H7          -4.9930     4.4430     8.2880 ha         1 1PH       0.134000
     34 H8          -1.5620     3.7580    -3.5850 hn         1 1PH       0.492467
     35 H9          -2.8650     3.1560    -4.3670 hn         1 1PH       0.492467
     36 H10         -3.1510    -0.0010    -4.2970 ha         1 1PH       0.156000
     37 H11         -3.6440    -1.5120    -2.4160 ha         1 1PH       0.168000
     38 H12         -2.1940    -1.5200    -0.4250 ha         1 1PH       0.175000
     39 H13         -3.7410    -0.5300     3.5620 hn         1 1PH       0.323500
     40 H14         -4.2060     3.4030    10.3810 ha         1 1PH       0.135000
     41 H15         -3.5290     1.0320    10.4000 ha         1 1PH       0.134000
     42 H16         -3.6360    -0.2980     8.3270 ha         1 1PH       0.126000
     43 H17         -2.5840    -0.0210     1.3910 ha         1 1PH       0.119000
     44 H18          0.2160     1.5640    -2.1940 ha         1 1PH       0.155000
     45 H013        -1.7520     3.9860    -5.1930 hn         1 1PH       0.492467
     46 S02         -1.0760     1.9260    -4.7220 sy         1 1PH       1.230200
     47 C18         -3.1440     0.6190     5.1390 c          1 1PH       0.654100
     48 H4          -5.1080     3.1110     6.2180 ha         1 1PH       0.126000
@<TRIPOS>BOND
     1    21    47 2
     2     9    47 1
     3     9    10 1
     4    47    20 1
     5    24    10 ar
     6    24    23 ar
     7    10     8 ar
     8    23    22 ar
     9    20     7 1
    10     6     7 ar
    11     6     5 ar
    12     8    11 ar
    13     7    25 ar
    14     5     4 ar
    15    22    11 ar
    16    25    26 ar
    17     4    26 ar
    18     4     3 2
    19    26     1 2
    20     3     2 1
    21     1     2 1
    22     1    19 1
    23    18    19 ar
    24    18    17 ar
    25    19    27 ar
    26    17    16 ar
    27    27    15 ar
    28    16    15 ar
    29    15    46 1
    30    46    14 2
    31    46    12 1
    32    46    13 2
    33     2    28 1
    34     5    29 1
    35     6    30 1
    36     8    48 1
    37     9    31 1
    38     9    32 1
    39    11    33 1
    40    12    34 1
    41    12    35 1
    42    16    36 1
    43    17    37 1
    44    18    38 1
    45    20    39 1
    46    22    40 1
    47    23    41 1
    48    24    42 1
    49    25    43 1
    50    27    44 1
    51    45    12 1
@<TRIPOS>SUBSTRUCTURE
     1 1PH         1 TEMP              0 ****  ****    0 ROOT
