@<TRIPOS>MOLECULE
1PH
   48    51     1     0     0
SMALL
bcc


@<TRIPOS>ATOM
      1 C10         -0.1890     0.0070     0.1280 cc         1 1PH      -0.177300
      2 N11          1.1970    -0.2590     0.1570 na         1 1PH       0.061800
      3 N12          1.6750    -0.4760     1.3600 nc         1 1PH      -0.194400
      4 C13          0.6170    -0.3420     2.2330 ca         1 1PH      -0.120000
      5 C14          0.5620    -0.4540     3.6490 ca         1 1PH      -0.042000
      6 C15         -0.6300    -0.2550     4.2860 ca         1 1PH      -0.148000
      7 C16         -1.8390     0.0770     3.5670 ca         1 1PH       0.135600
      8 C22         -6.3160     1.0010     4.1500 ca         1 1PH      -0.126000
      9 C20         -4.7120     0.6390     6.0380 c3         1 1PH      -0.111100
     10 C21         -5.4950     1.5360     5.1500 ca         1 1PH      -0.108300
     11 C23         -7.0760     1.8430     3.3400 ca         1 1PH      -0.126500
     12 N01         -0.0100     0.3620    -5.6450 nz         1 1PH      -0.785500
     13 O03         -1.3540     2.5160    -5.4520 o          1 1PH      -0.567300
     14 O04          0.7950     2.4190    -4.3710 o          1 1PH      -0.567300
     15 C05         -1.1220     1.1400    -3.3530 ca         1 1PH      -0.541500
     16 C06         -2.4900     0.7920    -3.3570 ca         1 1PH      -0.011000
     17 C07         -3.0720     0.1840    -2.2530 ca         1 1PH      -0.137000
     18 C08         -2.3120    -0.0880    -1.1170 ca         1 1PH      -0.003000
     19 C09         -0.9450     0.2630    -1.0680 ca         1 1PH       0.018200
     20 N17         -3.0540     0.2730     4.2270 ns         1 1PH      -0.472100
     21 O19         -2.3580     0.3690     6.4370 o          1 1PH      -0.567100
     22 C24         -7.0210     3.2250     3.5210 ca         1 1PH      -0.120000
     23 C25         -6.2050     3.7640     4.5160 ca         1 1PH      -0.126500
     24 C26         -5.4460     2.9240     5.3300 ca         1 1PH      -0.126000
     25 C27         -1.8110     0.1860     2.1720 ca         1 1PH      -0.224000
     26 C28         -0.6050    -0.0300     1.4910 ca         1 1PH      -0.013000
     27 C29         -0.3690     0.8680    -2.1880 ca         1 1PH      -0.026000
     28 S02         -0.4690     1.9150    -4.5840 sy         1 1PH       1.494200
     29 C18         -3.2690     0.4300     5.5980 c          1 1PH       0.672100
     30 H1           1.7930    -0.3330    -0.6360 hn         1 1PH       0.320700
     31 H2           1.4770    -0.6970     4.2120 ha         1 1PH       0.165000
     32 H3          -0.6680    -0.3460     5.3870 ha         1 1PH       0.191000
     33 H5          -5.1930    -0.3750     6.1000 hc         1 1PH       0.094700
     34 H6          -4.6760     1.0610     7.0800 hc         1 1PH       0.094700
     35 H7          -7.7310     1.4150     2.5660 ha         1 1PH       0.139000
     36 H8           0.9950     0.3310    -5.8070 hn         1 1PH       0.453800
     37 H9          -0.4690     0.4080    -6.5520 hn         1 1PH       0.453800
     38 H10         -3.1090     1.0270    -4.2430 ha         1 1PH       0.165000
     39 H11         -4.1430    -0.0830    -2.2740 ha         1 1PH       0.174000
     40 H12         -2.7730    -0.5840    -0.2430 ha         1 1PH       0.180000
     41 H13         -3.8440     0.4420     3.6390 hn         1 1PH       0.325500
     42 H14         -7.6270     3.8890     2.8870 ha         1 1PH       0.140000
     43 H15         -6.1660     4.8530     4.6670 ha         1 1PH       0.139000
     44 H16         -4.8120     3.3520     6.1220 ha         1 1PH       0.138500
     45 H17         -2.7110     0.4590     1.6030 ha         1 1PH       0.128000
     46 H18          0.6910     1.1800    -2.1620 ha         1 1PH       0.162000
     47 H013        -0.2830    -0.5070    -5.1980 hn         1 1PH       0.453800
     48 H4          -6.3790    -0.0900     4.0170 ha         1 1PH       0.138500
@<TRIPOS>BOND
     1     1     2 1   
     2     1    19 1   
     3     1    26 2   
     4     2     3 1   
     5     2    30 1   
     6     3     4 2   
     7     4     5 ar  
     8     4    26 ar  
     9     5     6 ar  
    10     5    31 1   
    11     6     7 ar  
    12     6    32 1   
    13     7    20 1   
    14     7    25 ar  
    15     8    10 ar  
    16     8    11 ar  
    17     8    48 1   
    18     9    10 1   
    19     9    29 1   
    20     9    33 1   
    21     9    34 1   
    22    10    24 ar  
    23    11    22 ar  
    24    11    35 1   
    25    12    28 1   
    26    12    36 1   
    27    12    37 1   
    28    12    47 1   
    29    13    28 2   
    30    14    28 2   
    31    15    16 ar  
    32    15    27 ar  
    33    15    28 1   
    34    16    17 ar  
    35    16    38 1   
    36    17    18 ar  
    37    17    39 1   
    38    18    19 ar  
    39    18    40 1   
    40    19    27 ar  
    41    20    29 1   
    42    20    41 1   
    43    21    29 2   
    44    22    23 ar  
    45    22    42 1   
    46    23    24 ar  
    47    23    43 1   
    48    24    44 1   
    49    25    26 ar  
    50    25    45 1   
    51    27    46 1   
@<TRIPOS>SUBSTRUCTURE
     1 1PH         1 TEMP              0 ****  ****    0 ROOT
