@<TRIPOS>MOLECULE
1PJ
   25    26     1     0     0
SMALL
bcc


@<TRIPOS>ATOM
      1 C6          0.0810    0.2020    0.0500 ca        1 1PJ     -0.100000
      2 C5          1.5880   -1.0210   -2.2890 c         1 1PJ      0.944600
      3 C4          3.6440    0.2780   -1.3800 cx        1 1PJ     -0.125900
      4 C2          1.4780    0.0260    0.0180 ca        1 1PJ     -0.016300
      5 O8          0.3780   -0.8920   -2.6300 o         1 1PJ     -0.830800
      6 O9          2.3640   -1.9080   -2.7380 o         1 1PJ     -0.830800
      7 C1          2.1660   -0.0030   -1.2810 cx        1 1PJ     -0.175700
      8 C3          2.6630    1.2940   -1.8800 cx        1 1PJ     -0.125900
      9 C10        -0.6050    0.2490    1.2560 ca        1 1PJ     -0.188500
     10 C12         0.1080    0.1110    2.4590 ca        1 1PJ      0.081100
     11 O13        -0.6600    0.2070    3.6150 os        1 1PJ     -0.342900
     12 C14        -0.0130   -0.1830    4.8140 c3        1 1PJ      0.121700
     13 C11         1.4900   -0.0900    2.4490 ca        1 1PJ     -0.188500
     14 C7          2.1620   -0.1350    1.2260 ca        1 1PJ     -0.100000
     15 H1         -0.4570    0.2560   -0.9170 ha        1 1PJ      0.157500
     16 H2          4.2120   -0.3300   -2.1090 hc        1 1PJ      0.056950
     17 H3          4.2290    0.5060   -0.4730 hc        1 1PJ      0.056950
     18 H5          2.5390    1.4400   -2.9670 hc        1 1PJ      0.056950
     19 H6          2.5310    2.2330   -1.3150 hc        1 1PJ      0.056950
     20 H7         -1.6940    0.3860    1.2840 ha        1 1PJ      0.122000
     21 H8         -0.8270   -0.1550    5.5820 h1        1 1PJ      0.029700
     22 H9          0.4100   -1.2140    4.7270 h1        1 1PJ      0.029700
     23 H10         0.7960    0.5420    5.0790 h1        1 1PJ      0.029700
     24 H11         2.0520   -0.2190    3.3820 ha        1 1PJ      0.122000
     25 H12         3.2480   -0.3130    1.2200 ha        1 1PJ      0.157500
@<TRIPOS>BOND
     1    1    4 ar  
     2    1    9 ar  
     3    1   15 1   
     4    2    5 1   
     5    2    6 1   
     6    2    7 1   
     7    3    7 1   
     8    3    8 1   
     9    3   16 1   
    10    3   17 1   
    11    4    7 1   
    12    4   14 ar  
    13    7    8 1   
    14    8   18 1   
    15    8   19 1   
    16    9   10 ar  
    17    9   20 1   
    18   10   11 1   
    19   10   13 ar  
    20   11   12 1   
    21   12   21 1   
    22   12   22 1   
    23   12   23 1   
    24   13   14 ar  
    25   13   24 1   
    26   14   25 1   
@<TRIPOS>SUBSTRUCTURE
     1 1PJ         1 TEMP              0 ****  ****    0 ROOT
