@<TRIPOS>MOLECULE
molecule
   25    26     1     0     0
SMALL
bcc


@<TRIPOS>ATOM
      1 C6           0.0000     0.0000     0.0000 ca         1 1PJ      -0.088000
      2 C5           1.4870    -0.7660    -2.4290 c          1 1PJ       0.928600
      3 C4           3.6640     0.0040    -1.2400 cx         1 1PJ      -0.137900
      4 C2           1.3830     0.0000     0.0000 ca         1 1PJ      -0.044300
      5 O8           0.1500    -0.8020    -2.5340 o          1 1PJ      -0.838300
      6 O9           2.1730    -1.3490    -3.2350 o          1 1PJ      -0.838300
      7 C1           2.1350     0.0020    -1.3050 cx         1 1PJ      -0.153700
      8 C3           2.9140     1.2670    -1.6710 cx         1 1PJ      -0.137900
      9 C10         -0.6910    -0.0010     1.1960 ca         1 1PJ      -0.209000
     10 C12          0.0020    -0.0070     2.3970 ca         1 1PJ       0.103100
     11 O13         -0.6760    -0.0090     3.5750 os         1 1PJ      -0.343900
     12 C14          0.1030    -0.0150     4.7730 c3         1 1PJ       0.134700
     13 C11          1.3890    -0.0120     2.3950 ca         1 1PJ      -0.209000
     14 C7           2.0760     0.0000     1.1970 ca         1 1PJ      -0.088000
     15 H1          -0.5420     0.0050    -0.9380 ha         1 1PJ       0.169500
     16 H2           4.0900     0.0310    -0.2440 hc         1 1PJ       0.064950
     17 H3           4.1660    -0.5350    -2.0340 hc         1 1PJ       0.064950
     18 H5           2.9590     1.4990    -2.7290 hc         1 1PJ       0.064950
     19 H6           2.8820     2.0640    -0.9390 hc         1 1PJ       0.064950
     20 H7          -1.7740    -0.0010     1.1960 ha         1 1PJ       0.118500
     21 H8           0.7260    -0.9020     4.7940 h1         1 1PJ       0.028367
     22 H9          -0.5560    -0.0160     5.6330 h1         1 1PJ       0.028367
     23 H10          0.7310     0.8670     4.8000 h1         1 1PJ       0.028367
     24 H11          1.9330    -0.0140     3.3320 ha         1 1PJ       0.118500
     25 H12          3.1600    -0.0020     1.1940 ha         1 1PJ       0.169500
@<TRIPOS>BOND
     1     6     2 1   
     2     2     5 1   
     3     2     7 1   
     4     3     8 1   
     5     3     7 1   
     6     8     7 1   
     7     7     4 1   
     8     4     1 ar  
     9     4    14 ar  
    10     1     9 ar  
    11    14    13 ar  
    12     9    10 ar  
    13    13    10 ar  
    14    10    11 1   
    15    11    12 1   
    16     1    15 1   
    17     3    16 1   
    18     3    17 1   
    19     8    18 1   
    20     8    19 1   
    21     9    20 1   
    22    12    21 1   
    23    12    22 1   
    24    12    23 1   
    25    13    24 1   
    26    14    25 1   
@<TRIPOS>SUBSTRUCTURE
     1 1PJ         1 TEMP              0 ****  ****    0 ROOT
