@<TRIPOS>MOLECULE
1PJ
   25    26     1     0     0
SMALL
bcc


@<TRIPOS>ATOM
      1 C6           0.0120     0.2560     0.0540 ca         1 1PJ      -0.099000
      2 C5           1.8260     1.2170    -2.1770 c          1 1PJ       0.944600
      3 C4           2.0440    -1.3590    -2.1550 cx         1 1PJ      -0.125900
      4 C2           1.3770    -0.0650    -0.0340 ca         1 1PJ      -0.018300
      5 O8           0.6440     1.5640    -2.4560 o          1 1PJ      -0.830800
      6 O9           2.8570     1.8400    -2.5510 o          1 1PJ      -0.830800
      7 C1           2.0260    -0.0750    -1.3540 cx         1 1PJ      -0.174700
      8 C3           3.3170    -0.8220    -1.5770 cx         1 1PJ      -0.125900
      9 C10         -0.6440     0.2630     1.2820 ca         1 1PJ      -0.188500
     10 C12          0.0730    -0.0420     2.4450 ca         1 1PJ       0.080100
     11 O13         -0.4860    -0.0950     3.7170 os         1 1PJ      -0.345900
     12 C14         -1.7860     0.4630     3.8360 c3         1 1PJ       0.121700
     13 C11          1.4420    -0.3390     2.3820 ca         1 1PJ      -0.188500
     14 C7           2.0790    -0.3470     1.1450 ca         1 1PJ      -0.099000
     15 H1          -0.5170     0.5430    -0.8760 ha         1 1PJ       0.157500
     16 H2           1.8710    -1.2890    -3.2430 hc         1 1PJ       0.057200
     17 H3           1.6020    -2.2710    -1.7190 hc         1 1PJ       0.057200
     18 H5           4.0540    -0.3390    -2.2460 hc         1 1PJ       0.057200
     19 H6           3.7960    -1.3680    -0.7460 hc         1 1PJ       0.057200
     20 H7          -1.7110     0.5180     1.3250 ha         1 1PJ       0.122500
     21 H8          -1.8130     1.5090     3.4470 h1         1 1PJ       0.031367
     22 H9          -1.9860     0.4460     4.9370 h1         1 1PJ       0.031367
     23 H10         -2.5330    -0.1680     3.2950 h1         1 1PJ       0.031367
     24 H11          1.9930    -0.5610     3.3050 ha         1 1PJ       0.122500
     25 H12          3.1570    -0.5630     1.1000 ha         1 1PJ       0.157500
@<TRIPOS>BOND
     1     1     4 ar  
     2     1     9 ar  
     3     1    15 1   
     4     2     5 1   
     5     2     6 1   
     6     2     7 1   
     7     3     7 1   
     8     3     8 1   
     9     3    16 1   
    10     3    17 1   
    11     4     7 1   
    12     4    14 ar  
    13     7     8 1   
    14     8    18 1   
    15     8    19 1   
    16     9    10 ar  
    17     9    20 1   
    18    10    11 1   
    19    10    13 ar  
    20    11    12 1   
    21    12    21 1   
    22    12    22 1   
    23    12    23 1   
    24    13    14 ar  
    25    13    24 1   
    26    14    25 1   
@<TRIPOS>SUBSTRUCTURE
     1 1PJ         1 TEMP              0 ****  ****    0 ROOT
