@<TRIPOS>MOLECULE
1PK
   24    26     1     0     0
SMALL
bcc


@<TRIPOS>ATOM
      1 N14          0.0000     0.0000     0.0000 nz         1 1PK       0.175700
      2 C11          1.3720     0.0000     0.0000 cc         1 1PK       0.090400
      3 N5           2.0300     0.0000     1.2020 na         1 1PK       0.091100
      4 N7           2.0010    -0.0040    -1.1500 nd         1 1PK      -0.468000
      5 C3           3.3600    -0.0100    -1.2140 ca         1 1PK       0.277600
      6 C8           4.0440    -0.0200    -2.4200 ca         1 1PK      -0.067300
      7 C13          5.4340    -0.0310    -2.4370 ca         1 1PK      -0.101000
      8 C10          6.1650    -0.0330    -1.2840 ca         1 1PK      -0.023000
      9 C4           5.5120    -0.0220    -0.0390 ca         1 1PK      -0.018000
     10 C1           4.1010    -0.0100    -0.0080 ca         1 1PK      -0.082300
     11 C9           6.2190    -0.0230     1.1760 ca         1 1PK      -0.083000
     12 C12          5.5370    -0.0140     2.3580 ca         1 1PK      -0.052000
     13 C6           4.1460    -0.0020     2.3950 ca         1 1PK      -0.115000
     14 C2           3.4200    -0.0000     1.2240 ca         1 1PK      -0.140300
     15 H1          -0.3340     0.8590     0.3910 hn         1 1PK       0.215133
     16 H2          -0.3340    -0.7680     0.5480 hn         1 1PK       0.215133
     17 H3           1.5160     0.1110     2.0540 hn         1 1PK       0.133700
     18 H4           3.4930    -0.0190    -3.3530 ha         1 1PK       0.122000
     19 H5           5.9500    -0.0390    -3.3900 ha         1 1PK       0.125000
     20 H6           7.2470    -0.0420    -1.3290 ha         1 1PK       0.124000
     21 H7           7.3020    -0.0320     1.1740 ha         1 1PK       0.126000
     22 H8           6.0910    -0.0150     3.2880 ha         1 1PK       0.121000
     23 H9           3.6310     0.0050     3.3480 ha         1 1PK       0.116000
     24 H143        -0.3340    -0.0910    -0.9390 hn         1 1PK       0.215133
@<TRIPOS>BOND
     1     1     2 1   
     2     1    15 1   
     3     1    16 1   
     4     1    24 1   
     5     2     3 1   
     6     2     4 2   
     7     3    14 1   
     8     3    17 1   
     9     4     5 1   
    10     5     6 ar  
    11     5    10 ar  
    12     6     7 ar  
    13     6    18 1   
    14     7     8 ar  
    15     7    19 1   
    16     8     9 ar  
    17     8    20 1   
    18     9    10 ar  
    19     9    11 ar  
    20    10    14 ar  
    21    11    12 ar  
    22    11    21 1   
    23    12    13 ar  
    24    12    22 1   
    25    13    14 ar  
    26    13    23 1   
@<TRIPOS>SUBSTRUCTURE
     1 1PK         1 TEMP              0 ****  ****    0 ROOT
