@<TRIPOS>MOLECULE
1PK
   24    26     1     0     0
SMALL
bcc


@<TRIPOS>ATOM
      1 N14         -0.1020    -0.1100    -0.0180 nz         1 1PK      -0.832300
      2 C11          1.3950     0.0120    -0.0350 cc         1 1PK       0.541400
      3 N5           2.0040    -0.0100     1.2600 na         1 1PK      -0.334900
      4 N7           1.9600    -0.0130    -1.2190 nd         1 1PK      -0.602000
      5 C3           3.3640     0.0310    -1.2700 ca         1 1PK       0.324600
      6 C8           4.0310     0.0670    -2.4910 ca         1 1PK      -0.089300
      7 C13          5.4420     0.0620    -2.5110 ca         1 1PK      -0.135000
      8 C10          6.1730     0.0170    -1.3470 ca         1 1PK      -0.058000
      9 C4           5.5250    -0.0150    -0.0810 ca         1 1PK      -0.025000
     10 C1           4.1150     0.0020    -0.0410 ca         1 1PK      -0.104300
     11 C9           6.2490    -0.0670     1.1420 ca         1 1PK      -0.098000
     12 C12          5.5820    -0.0940     2.3430 ca         1 1PK      -0.103000
     13 C6           4.1700    -0.0620     2.3990 ca         1 1PK      -0.105000
     14 C2           3.4370    -0.0130     1.2220 ca         1 1PK      -0.039300
     15 H1          -0.4590    -0.1830    -0.9820 hn         1 1PK       0.476800
     16 H2          -0.3610    -0.9550     0.5060 hn         1 1PK       0.476800
     17 H3           1.6450     0.6830     1.8940 hn         1 1PK       0.261700
     18 H4           3.4770     0.0960    -3.4440 ha         1 1PK       0.165000
     19 H5           5.9530     0.0900    -3.4890 ha         1 1PK       0.165000
     20 H6           7.2760     0.0010    -1.3750 ha         1 1PK       0.162000
     21 H7           7.3500    -0.0850     1.1060 ha         1 1PK       0.160000
     22 H8           6.1420    -0.1400     3.2920 ha         1 1PK       0.162000
     23 H9           3.6770    -0.0750     3.3840 ha         1 1PK       0.155000
     24 H143        -0.5090     0.7160     0.4310 hn         1 1PK       0.476800
@<TRIPOS>BOND
     1     1     2 1   
     2     1    15 1   
     3     1    16 1   
     4     1    24 1   
     5     2     3 1   
     6     2     4 2   
     7     3    14 1   
     8     3    17 1   
     9     4     5 1   
    10     5     6 ar  
    11     5    10 ar  
    12     6     7 ar  
    13     6    18 1   
    14     7     8 ar  
    15     7    19 1   
    16     8     9 ar  
    17     8    20 1   
    18     9    10 ar  
    19     9    11 ar  
    20    10    14 ar  
    21    11    12 ar  
    22    11    21 1   
    23    12    13 ar  
    24    12    22 1   
    25    13    14 ar  
    26    13    23 1   
@<TRIPOS>SUBSTRUCTURE
     1 1PK         1 TEMP              0 ****  ****    0 ROOT
