@<TRIPOS>MOLECULE
molecule
   24    26     1     0     0
SMALL
bcc


@<TRIPOS>ATOM
      1 N14          0.0000     0.0000     0.0000 nz         1 1PK      -0.770300
      2 C11          1.3720     0.0000     0.0000 cc         1 1PK       0.557400
      3 N5           2.0300     0.0000     1.2020 na         1 1PK      -0.407900
      4 N7           2.0010    -0.0040    -1.1500 nd         1 1PK      -0.648000
      5 C3           3.3600    -0.0100    -1.2140 ca         1 1PK       0.357600
      6 C8           4.0440    -0.0200    -2.4200 ca         1 1PK      -0.110300
      7 C13          5.4340    -0.0310    -2.4370 ca         1 1PK      -0.121000
      8 C10          6.1650    -0.0330    -1.2840 ca         1 1PK      -0.070000
      9 C4           5.5120    -0.0220    -0.0390 ca         1 1PK      -0.011000
     10 C1           4.1010    -0.0100    -0.0080 ca         1 1PK      -0.112300
     11 C9           6.2190    -0.0230     1.1760 ca         1 1PK      -0.120000
     12 C12          5.5370    -0.0140     2.3580 ca         1 1PK      -0.081000
     13 C6           4.1460    -0.0020     2.3950 ca         1 1PK      -0.154000
     14 C2           3.4200    -0.0000     1.2240 ca         1 1PK       0.033700
     15 H1          -0.3340     0.8590     0.3910 hn         1 1PK       0.474800
     16 H2          -0.3340    -0.7680     0.5480 hn         1 1PK       0.474800
     17 H3           1.5160     0.1110     2.0540 hn         1 1PK       0.299700
     18 H4           3.4930    -0.0190    -3.3530 ha         1 1PK       0.158000
     19 H5           5.9500    -0.0390    -3.3900 ha         1 1PK       0.159000
     20 H6           7.2470    -0.0420    -1.3290 ha         1 1PK       0.160000
     21 H7           7.3020    -0.0320     1.1740 ha         1 1PK       0.158000
     22 H8           6.0910    -0.0150     3.2880 ha         1 1PK       0.156000
     23 H9           3.6310     0.0050     3.3480 ha         1 1PK       0.143000
     24 H143        -0.3340    -0.0910    -0.9390 hn         1 1PK       0.474800
@<TRIPOS>BOND
     1     7     8 ar
     2     7     6 ar
     3     8     9 ar
     4     6     5 ar
     5     9    11 ar
     6     9    10 ar
     7     5    10 ar
     8     5     4 1
     9    11    12 ar
    10    10    14 ar
    11     4     2 2
    12    12    13 ar
    13    14    13 ar
    14    14     3 1
    15     2     3 1
    16     2     1 1
    17     1    15 1
    18     1    16 1
    19     3    17 1
    20     6    18 1
    21     7    19 1
    22     8    20 1
    23    11    21 1
    24    12    22 1
    25    13    23 1
    26    24     1 1
@<TRIPOS>SUBSTRUCTURE
     1 1PK         1 TEMP              0 ****  ****    0 ROOT
