@<TRIPOS>MOLECULE
molecule
   38    40     1     0     0
SMALL
bcc


@<TRIPOS>ATOM
      1 C10          0.0000     0.0000     0.0000 c3         1 1PL      -0.090100
      2 C9           1.5300     0.0000     0.0000 c3         1 1PL      -0.055700
      3 C11          2.0610     0.0000     1.4530 c3         1 1PL      -0.087400
      4 C12          3.3030    -0.9270     1.4050 c3         1 1PL      -0.062400
      5 C5           2.8660    -2.0410     0.4220 c3         1 1PL      -0.014500
      6 C4           2.0520    -1.2730    -0.6470 c3         1 1PL      -0.075000
      7 C3           0.9880    -2.1510    -1.2840 c3         1 1PL      -0.061400
      8 C2           1.0720    -1.9040    -2.8010 c3         1 1PL      -0.064000
      9 C14         -0.0860    -1.0090    -3.2460 c3         1 1PL      -0.080100
     10 C15          1.0150    -3.2380    -3.5480 c3         1 1PL      -0.080100
     11 C1           2.4120    -1.2070    -3.0760 c3         1 1PL      -0.061400
     12 C8           3.1100    -0.9880    -1.7310 c3         1 1PL      -0.033500
     13 C7           4.1960    -2.0070    -1.5060 c2         1 1PL      -0.208200
     14 C6           4.0660    -2.5800    -0.3140 ce         1 1PL      -0.118400
     15 C13          4.9730    -3.6070     0.2170 c          1 1PL       0.885800
     16 O1           4.7580    -4.1290     1.4400 o          1 1PL      -0.840800
     17 O2           5.9190    -3.9840    -0.4480 o          1 1PL      -0.840800
     18 H101        -0.3610    -0.9320     0.4170 hc         1 1PL       0.028033
     19 H102        -0.3610     0.8270     0.5990 hc         1 1PL       0.028033
     20 H103        -0.3610     0.1050    -1.0160 hc         1 1PL       0.028033
     21 H9           1.9070     0.8660    -0.5310 hc         1 1PL       0.042700
     22 H111         1.3150    -0.4030     2.1270 hc         1 1PL       0.029700
     23 H112         2.3490     1.0010     1.7490 hc         1 1PL       0.029700
     24 H121         3.5070    -1.3420     2.3850 hc         1 1PL       0.052700
     25 H122         4.1630    -0.3940     1.0190 hc         1 1PL       0.052700
     26 H5           2.2860    -2.8190     0.9040 hc         1 1PL       0.074700
     27 H31          1.1890    -3.1930    -1.0670 hc         1 1PL       0.050700
     28 H32          0.0080    -1.8710    -0.9170 hc         1 1PL       0.050700
     29 H141        -1.0010    -1.3360    -2.7670 hc         1 1PL       0.027867
     30 H142        -0.1980    -1.0720    -4.3220 hc         1 1PL       0.027867
     31 H143         0.1220     0.0170    -2.9650 hc         1 1PL       0.027867
     32 H151         1.8230    -3.8760    -3.2100 hc         1 1PL       0.027867
     33 H152         0.0660    -3.7220    -3.3530 hc         1 1PL       0.027867
     34 H153         1.1170    -3.0600    -4.6120 hc         1 1PL       0.027867
     35 H11          2.2360    -0.2520    -3.5570 hc         1 1PL       0.034700
     36 H12          3.0270    -1.8350    -3.7090 hc         1 1PL       0.034700
     37 H8           3.4950     0.0220    -1.6470 hc         1 1PL       0.040700
     38 H7           5.1820    -1.8510    -1.9270 ha         1 1PL       0.142000
@<TRIPOS>BOND
     1     1     2 1   
     2     2     3 1   
     3     2     6 1   
     4     3     4 1   
     5     4     5 1   
     6     7     6 1   
     7     7     8 1   
     8     6     5 1   
     9     6    12 1   
    10     5    14 1   
    11     9     8 1   
    12     8    10 1   
    13     8    11 1   
    14    12    11 1   
    15    12    13 1   
    16    17    15 1   
    17    14    13 2   
    18    14    15 1   
    19    15    16 1   
    20     1    18 1   
    21     1    19 1   
    22     1    20 1   
    23     2    21 1   
    24     3    22 1   
    25     3    23 1   
    26     4    24 1   
    27     4    25 1   
    28     5    26 1   
    29     7    27 1   
    30     7    28 1   
    31     9    29 1   
    32     9    30 1   
    33     9    31 1   
    34    10    32 1   
    35    10    33 1   
    36    10    34 1   
    37    11    35 1   
    38    11    36 1   
    39    12    37 1   
    40    13    38 1   
@<TRIPOS>SUBSTRUCTURE
     1 1PL         1 TEMP              0 ****  ****    0 ROOT
