@<TRIPOS>MOLECULE
1PL
   38    40     1     0     0
SMALL
bcc


@<TRIPOS>ATOM
      1 C10         0.4500    0.6910   -0.0820 c3        1 1PL     -0.079100
      2 C9          1.7600   -0.0140    0.1650 c3        1 1PL     -0.056700
      3 C11         1.9020   -0.4600    1.6210 c3        1 1PL     -0.075400
      4 C12         2.9340   -1.5760    1.6210 c3        1 1PL     -0.065400
      5 C5          2.9430   -2.1710    0.2170 c3        1 1PL     -0.018500
      6 C4          2.0560   -1.2540   -0.6960 c3        1 1PL     -0.055000
      7 C3          0.8380   -1.9920   -1.2410 c3        1 1PL     -0.054400
      8 C2          0.9320   -2.0540   -2.7760 c3        1 1PL     -0.054000
      9 C14        -0.1510   -1.1940   -3.4080 c3        1 1PL     -0.081100
     10 C15         0.7610   -3.4860   -3.2560 c3        1 1PL     -0.081100
     11 C1          2.3210   -1.5250   -3.1580 c3        1 1PL     -0.063400
     12 C8          2.9550   -0.9070   -1.9190 c3        1 1PL     -0.024500
     13 C7          4.2960   -1.4990   -1.5950 c2        1 1PL     -0.221200
     14 C6          4.2990   -2.1790   -0.4340 ce        1 1PL     -0.126400
     15 C13         5.4490   -2.9410    0.1760 c         1 1PL      0.908800
     16 O1          5.1850   -4.0080    0.8030 o         1 1PL     -0.835300
     17 O2          6.6180   -2.4830    0.0290 o         1 1PL     -0.835300
     18 H101       -0.4140    0.1100    0.3220 hc        1 1PL      0.023033
     19 H102        0.2920    0.8550   -1.1750 hc        1 1PL      0.023033
     20 H103        0.4570    1.6860    0.4280 hc        1 1PL      0.023033
     21 H9          2.5850    0.7300   -0.0370 hc        1 1PL      0.050700
     22 H111        2.2200    0.3940    2.2670 hc        1 1PL      0.022700
     23 H112        0.9210   -0.8320    2.0100 hc        1 1PL      0.022700
     24 H121        2.6820   -2.3580    2.3780 hc        1 1PL      0.051700
     25 H122        3.9500   -1.1800    1.8770 hc        1 1PL      0.051700
     26 H5          2.5620   -3.2240    0.2480 hc        1 1PL      0.069700
     27 H31         0.8020   -3.0330   -0.8260 hc        1 1PL      0.037700
     28 H32        -0.1190   -1.4990   -0.9380 hc        1 1PL      0.037700
     29 H141       -0.0790   -1.2360   -4.5220 hc        1 1PL      0.027033
     30 H142       -1.1630   -1.5570   -3.1050 hc        1 1PL      0.027033
     31 H143       -0.0420   -0.1310   -3.0850 hc        1 1PL      0.027033
     32 H151        0.8530   -3.5340   -4.3670 hc        1 1PL      0.027033
     33 H152       -0.2430   -3.8750   -2.9640 hc        1 1PL      0.027033
     34 H153        1.5440   -4.1430   -2.8050 hc        1 1PL      0.027033
     35 H11         2.9620   -2.3610   -3.5410 hc        1 1PL      0.036200
     36 H12         2.2420   -0.7670   -3.9780 hc        1 1PL      0.036200
     37 H8          3.0400    0.2030   -2.0550 hc        1 1PL      0.035700
     38 H7          5.1450   -1.3610   -2.2630 ha        1 1PL      0.135000
@<TRIPOS>BOND
     1    1    2 1   
     2    1   18 1   
     3    1   19 1   
     4    1   20 1   
     5    2    3 1   
     6    2    6 1   
     7    2   21 1   
     8    3    4 1   
     9    3   22 1   
    10    3   23 1   
    11    4    5 1   
    12    4   24 1   
    13    4   25 1   
    14    5    6 1   
    15    5   14 1   
    16    5   26 1   
    17    6    7 1   
    18    6   12 1   
    19    7    8 1   
    20    7   27 1   
    21    7   28 1   
    22    8    9 1   
    23    8   10 1   
    24    8   11 1   
    25    9   29 1   
    26    9   30 1   
    27    9   31 1   
    28   10   32 1   
    29   10   33 1   
    30   10   34 1   
    31   11   12 1   
    32   11   35 1   
    33   11   36 1   
    34   12   13 1   
    35   12   37 1   
    36   13   14 2   
    37   13   38 1   
    38   14   15 1   
    39   15   16 1   
    40   15   17 1   
@<TRIPOS>SUBSTRUCTURE
     1 1PL         1 TEMP              0 ****  ****    0 ROOT
