@<TRIPOS>MOLECULE
1PL
   38    40     1     0     0
SMALL
bcc


@<TRIPOS>ATOM
      1 C10          0.0550     0.0340    -0.2300 c3         1 1PL      -0.081100
      2 C9           1.5430    -0.0640     0.0330 c3         1 1PL      -0.050700
      3 C11          1.8020    -0.1390     1.5430 c3         1 1PL      -0.073400
      4 C12          1.9980    -1.6060     1.8830 c3         1 1PL      -0.082400
      5 C5           2.5140    -2.2740     0.6150 c3         1 1PL      -0.018500
      6 C4           2.2250    -1.3020    -0.5780 c3         1 1PL      -0.056000
      7 C3           1.4430    -1.9740    -1.7050 c3         1 1PL      -0.054400
      8 C2           2.4470    -2.3990    -2.7900 c3         1 1PL      -0.056000
      9 C14          1.8330    -2.2780    -4.1710 c3         1 1PL      -0.084600
     10 C15          2.8970    -3.8320    -2.5590 c3         1 1PL      -0.084600
     11 C1           3.6320    -1.4380    -2.6280 c3         1 1PL      -0.061400
     12 C8           3.6310    -0.9700    -1.1760 c3         1 1PL      -0.022500
     13 C7           4.6070    -1.7380    -0.3330 c2         1 1PL      -0.232200
     14 C6           4.0100    -2.4500     0.6380 ce         1 1PL      -0.120400
     15 C13          4.6630    -3.3380     1.6690 c          1 1PL       0.912800
     16 O1           5.1940    -4.4150     1.2770 o          1 1PL      -0.833800
     17 O2           4.6360    -2.9640     2.8780 o          1 1PL      -0.833800
     18 H101        -0.1490     0.3370    -1.2860 hc         1 1PL       0.023033
     19 H102        -0.4450    -0.9440    -0.0330 hc         1 1PL       0.023033
     20 H103        -0.4030     0.8050     0.4360 hc         1 1PL       0.023033
     21 H9           2.0210     0.8670    -0.3790 hc         1 1PL       0.033700
     22 H111         0.9610     0.3070     2.1270 hc         1 1PL       0.030700
     23 H112         2.7310     0.4360     1.7910 hc         1 1PL       0.030700
     24 H121         1.0240    -2.0640     2.1900 hc         1 1PL       0.063200
     25 H122         2.7320    -1.7500     2.7210 hc         1 1PL       0.063200
     26 H5           2.0240    -3.2680     0.4630 hc         1 1PL       0.056700
     27 H31          0.7100    -1.2640    -2.1640 hc         1 1PL       0.033200
     28 H32          0.8670    -2.8540    -1.3280 hc         1 1PL       0.033200
     29 H141         1.4980    -1.2310    -4.3680 hc         1 1PL       0.031700
     30 H142         2.5800    -2.5630    -4.9500 hc         1 1PL       0.031700
     31 H143         0.9500    -2.9550    -4.2620 hc         1 1PL       0.031700
     32 H151         3.6400    -4.1360    -3.3350 hc         1 1PL       0.031700
     33 H152         3.3760    -3.9180    -1.5490 hc         1 1PL       0.031700
     34 H153         2.0260    -4.5270    -2.6090 hc         1 1PL       0.031700
     35 H11          3.5110    -0.5630    -3.3150 hc         1 1PL       0.031200
     36 H12          4.5950    -1.9450    -2.8850 hc         1 1PL       0.031200
     37 H8           3.8530     0.1260    -1.1250 hc         1 1PL       0.036700
     38 H7           5.6750    -1.6930    -0.5460 ha         1 1PL       0.128000
@<TRIPOS>BOND
     1     1     2 1   
     2     1    18 1   
     3     1    19 1   
     4     1    20 1   
     5     2     3 1   
     6     2     6 1   
     7     2    21 1   
     8     3     4 1   
     9     3    22 1   
    10     3    23 1   
    11     4     5 1   
    12     4    24 1   
    13     4    25 1   
    14     5     6 1   
    15     5    14 1   
    16     5    26 1   
    17     6     7 1   
    18     6    12 1   
    19     7     8 1   
    20     7    27 1   
    21     7    28 1   
    22     8     9 1   
    23     8    10 1   
    24     8    11 1   
    25     9    29 1   
    26     9    30 1   
    27     9    31 1   
    28    10    32 1   
    29    10    33 1   
    30    10    34 1   
    31    11    12 1   
    32    11    35 1   
    33    11    36 1   
    34    12    13 1   
    35    12    37 1   
    36    13    14 2   
    37    13    38 1   
    38    14    15 1   
    39    15    16 1   
    40    15    17 1   
@<TRIPOS>SUBSTRUCTURE
     1 1PL         1 TEMP              0 ****  ****    0 ROOT
