@<TRIPOS>MOLECULE
1PM
   61    65     1     0     0
SMALL
bcc


@<TRIPOS>ATOM
      1 N3          -0.2040     2.6410     0.0750 na         1 1PM      -0.273700
      2 C4           1.0640     3.2730     0.0430 cc         1 1PM      -0.206600
      3 C5           1.1840     3.9490     1.2560 cd         1 1PM       0.314200
      4 NFE          0.0310     3.7580     2.0420 nd         1 1PM      -0.637000
      5 C2          -0.7880     2.9810     1.3310 cc         1 1PM       0.438400
      6 C11         -0.7680     1.8460    -0.9310 ca         1 1PM       0.801500
      7 N12         -2.0270     1.3230    -0.6930 nb         1 1PM      -0.765000
      8 C13         -2.5660     0.5410    -1.6700 ca         1 1PM       0.643200
      9 C14         -1.8810     0.2980    -2.8900 ca         1 1PM      -0.429600
     10 C15         -0.6090     0.8860    -3.0320 ca         1 1PM       0.486200
     11 N16         -0.0310     1.6430    -2.0950 nb         1 1PM      -0.702000
     12 N21         -3.8400    -0.1070    -1.4690 nh         1 1PM      -0.774300
     13 C22         -4.2770    -0.2700    -0.0860 c3         1 1PM       0.140800
     14 C23         -5.1120     0.8860     0.5020 c3         1 1PM       0.042000
     15 N24         -6.1740     1.3190    -0.3890 n          1 1PM      -0.402800
     16 C25         -5.7270     1.5820    -1.7350 c3         1 1PM       0.056000
     17 C26         -4.8810     0.4310    -2.3580 c3         1 1PM       0.144500
     18 C27         -7.4440     0.7630    -0.1740 c          1 1PM       0.705100
     19 O28         -7.8580     0.2510     0.8760 o          1 1PM      -0.548000
     20 O29         -8.3070     0.8460    -1.2480 os         1 1PM      -0.457900
     21 C30         -9.6930     0.6560    -0.9290 c3         1 1PM       0.133700
     22 C31         -5.8430    -0.6760    -2.8240 c3         1 1PM      -0.162400
     23 C32         -5.1130    -1.7900    -3.5150 c          1 1PM       0.556100
     24 O33         -5.0430    -1.9920    -4.7180 o          1 1PM      -0.416100
     25 N34         -4.3620    -2.7500    -2.6250 ny         1 1PM      -0.673800
     26 C36         -4.4580    -4.1780    -3.0860 c3         1 1PM       0.177100
     27 C41         -3.6080    -5.0630    -2.2440 ca         1 1PM      -0.196300
     28 C42         -4.1920    -5.8420    -1.2440 ca         1 1PM      -0.083000
     29 C43         -3.4350    -6.7230    -0.4520 ca         1 1PM      -0.116000
     30 C44         -2.0800    -6.7720    -0.7140 ca         1 1PM       0.113100
     31 C45         -1.4820    -5.9760    -1.7360 ca         1 1PM       0.069100
     32 C46         -2.2200    -5.1170    -2.5170 ca         1 1PM      -0.108000
     33 O47         -1.1050    -7.5350    -0.1040 os         1 1PM      -0.309900
     34 C48          0.1540    -7.2300    -0.7620 c3         1 1PM       0.319200
     35 O49         -0.1210    -6.2290    -1.7770 os         1 1PM      -0.319900
     36 H4           1.7370     3.1860    -0.8110 h4         1 1PM       0.205000
     37 H5           2.0140     4.5570     1.6210 h4         1 1PM       0.062100
     38 H2          -1.7820     2.6310     1.6320 h5         1 1PM       0.077100
     39 H14         -2.3070    -0.3060    -3.6960 ha         1 1PM       0.144000
     40 H15         -0.0170     0.7380    -3.9570 h4         1 1PM       0.051100
     41 H22         -4.9060    -1.2080    -0.0750 h1         1 1PM       0.065700
     42 H23         -4.4480     1.7800     0.6850 h1         1 1PM       0.104700
     43 H25         -6.6040     1.8000    -2.4050 h1         1 1PM       0.098700
     44 H301        -9.8550    -0.3840    -0.5570 h1         1 1PM       0.063367
     45 H302       -10.0120     1.3970    -0.1590 h1         1 1PM       0.063367
     46 H303       -10.2030     0.8320    -1.9090 h1         1 1PM       0.063367
     47 H311        -6.5610    -0.2270    -3.5690 hc         1 1PM       0.118700
     48 H312        -6.4530    -1.0640    -1.9640 hc         1 1PM       0.118700
     49 H35         -3.3700    -2.4710    -2.6120 hn         1 1PM       0.464300
     50 H361        -4.1280    -4.2080    -4.1660 hx         1 1PM       0.113200
     51 H362        -5.5440    -4.4790    -3.0340 hx         1 1PM       0.113200
     52 H42         -5.2790    -5.7900    -1.0680 ha         1 1PM       0.146000
     53 H43         -3.9010    -7.3430     0.3280 ha         1 1PM       0.182000
     54 H46         -1.7620    -4.5270    -3.3210 ha         1 1PM       0.158000
     55 H481         0.5260    -8.1570    -1.2650 h2         1 1PM       0.097200
     56 H482         0.8510    -6.7910    -0.0070 h2         1 1PM       0.097200
     57 H221        -3.3930    -0.4440     0.5870 h1         1 1PM       0.065700
     58 H231        -5.5500     0.5560     1.4860 h1         1 1PM       0.104700
     59 H24         -5.0740     2.5020    -1.6910 h1         1 1PM       0.098700
     60 H251        -4.3850     0.8610    -3.2810 h1         1 1PM       0.096700
     61 H342        -4.7120    -2.6750    -1.6630 hn         1 1PM       0.464300
@<TRIPOS>BOND
     1     1     2 1   
     2     1     5 1   
     3     1     6 1   
     4     2     3 2   
     5     2    36 1   
     6     3     4 1   
     7     3    37 1   
     8     4     5 2   
     9     5    38 1   
    10     6     7 ar  
    11     6    11 ar  
    12     7     8 ar  
    13     8     9 ar  
    14     8    12 1   
    15     9    10 ar  
    16     9    39 1   
    17    10    11 ar  
    18    10    40 1   
    19    12    13 1   
    20    12    17 1   
    21    13    14 1   
    22    13    41 1   
    23    13    57 1   
    24    14    15 1   
    25    14    42 1   
    26    14    58 1   
    27    15    16 1   
    28    15    18 1   
    29    16    17 1   
    30    16    43 1   
    31    16    59 1   
    32    17    22 1   
    33    17    60 1   
    34    18    19 2   
    35    18    20 1   
    36    20    21 1   
    37    21    44 1   
    38    21    45 1   
    39    21    46 1   
    40    22    23 1   
    41    22    47 1   
    42    22    48 1   
    43    23    24 2   
    44    23    25 1   
    45    25    26 1   
    46    25    49 1   
    47    25    61 1   
    48    26    27 1   
    49    26    50 1   
    50    26    51 1   
    51    27    28 ar  
    52    27    32 ar  
    53    28    29 ar  
    54    28    52 1   
    55    29    30 ar  
    56    29    53 1   
    57    30    31 ar  
    58    30    33 1   
    59    31    32 ar  
    60    31    35 1   
    61    32    54 1   
    62    33    34 1   
    63    34    35 1   
    64    34    55 1   
    65    34    56 1   
@<TRIPOS>SUBSTRUCTURE
     1 1PM         1 TEMP              0 ****  ****    0 ROOT
