@<TRIPOS>MOLECULE
molecule
   60    64     1     0     0
SMALL
bcc


@<TRIPOS>ATOM
      1 N3           0.0000     0.0000     0.0000 na         1 1PM      -0.218700
      2 C4           1.3730     0.0000     0.0000 cc         1 1PM      -0.244600
      3 C5           1.7610     0.0000     1.2890 cd         1 1PM       0.314200
      4 NFE          0.6630     0.0020     2.0580 nd         1 1PM      -0.689000
      5 C2          -0.3980     0.0010     1.3000 cc         1 1PM       0.433400
      6 C11         -0.8290     0.0040    -1.1220 ca         1 1PM       0.801500
      7 N12         -2.1360    -0.1080    -0.9570 nb         1 1PM      -0.796000
      8 C13         -2.9530    -0.1080    -2.0060 ca         1 1PM       0.667200
      9 C14         -2.4110     0.0130    -3.2870 ca         1 1PM      -0.379600
     10 C15         -1.0400     0.1290    -3.4130 ca         1 1PM       0.486200
     11 N16         -0.2880     0.1260    -2.3230 nb         1 1PM      -0.759000
     12 N21         -4.3230    -0.2260    -1.8300 nh         1 1PM      -0.723300
     13 C22         -4.6610    -1.4880    -1.1590 c3         1 1PM       0.151800
     14 C23         -6.1820    -1.6650    -1.1470 c3         1 1PM       0.108000
     15 N24         -6.7870    -0.4630    -0.5520 n          1 1PM      -0.483800
     16 C25         -6.3910     0.8510    -1.0810 c3         1 1PM       0.131000
     17 C26         -4.8610     0.9280    -1.0960 c3         1 1PM       0.172500
     18 C27         -7.6800    -0.5640     0.4530 c          1 1PM       0.753100
     19 O28         -8.1700     0.4400     0.9330 o          1 1PM      -0.600000
     20 O29         -8.0300    -1.7750     0.9240 os         1 1PM      -0.445900
     21 C30         -8.9980    -1.8080     2.0070 c3         1 1PM       0.158700
     22 C31         -4.4220     2.2210    -1.7860 c3         1 1PM      -0.160400
     23 C32         -4.8460     3.4040    -0.9540 c          1 1PM       0.654100
     24 O33         -5.3390     3.2280     0.1410 o          1 1PM      -0.600100
     25 N34         -4.6780     4.6550    -1.4240 ns         1 1PM      -0.583900
     26 C36         -4.9870     5.8070    -0.5720 c3         1 1PM       0.166300
     27 C41         -4.8240     7.0770    -1.3660 ca         1 1PM      -0.119300
     28 C42         -5.8990     7.5970    -2.0630 ca         1 1PM      -0.108000
     29 C43         -5.7560     8.7610    -2.7940 ca         1 1PM      -0.116000
     30 C44         -4.5320     9.4110    -2.8290 ca         1 1PM       0.058100
     31 C45         -3.4500     8.8870    -2.1270 ca         1 1PM       0.046100
     32 C46         -3.6020     7.7230    -1.3920 ca         1 1PM      -0.100000
     33 O47         -4.1310    10.5520    -3.4610 os         1 1PM      -0.325900
     34 C48         -2.9080    10.9430    -2.8100 c3         1 1PM       0.331200
     35 O49         -2.3710     9.7010    -2.3190 os         1 1PM      -0.325900
     36 H4           2.0190    -0.0010    -0.8690 h4         1 1PM       0.190000
     37 H5           2.7850     0.0000     1.6440 h4         1 1PM       0.046100
     38 H2          -1.4240     0.0010     1.6470 h5         1 1PM       0.084100
     39 H14         -3.0500     0.0150    -4.1620 ha         1 1PM       0.164000
     40 H15         -0.5860     0.2270    -4.3920 h4         1 1PM       0.040100
     41 H22         -4.2920    -1.4640    -0.1410 h1         1 1PM       0.058200
     42 H23         -6.5420    -1.7890    -2.1610 h1         1 1PM       0.065200
     43 H25         -6.7880     1.6330    -0.4450 h1         1 1PM       0.082200
     44 H301        -9.1900    -2.8360     2.2890 h1         1 1PM       0.050033
     45 H302        -9.9220    -1.3450     1.6790 h1         1 1PM       0.050033
     46 H303        -8.6060    -1.2660     2.8590 h1         1 1PM       0.050033
     47 H311        -3.3440     2.2250    -1.8950 hc         1 1PM       0.068700
     48 H312        -4.8840     2.2830    -2.7640 hc         1 1PM       0.068700
     49 H35         -4.3160     4.7980    -2.3470 hn         1 1PM       0.318500
     50 H361        -6.0080     5.7300    -0.2180 h1         1 1PM       0.063700
     51 H362        -4.3110     5.8210     0.2750 h1         1 1PM       0.063700
     52 H42         -6.8580     7.0930    -2.0310 ha         1 1PM       0.146000
     53 H43         -6.6000     9.1670    -3.3380 ha         1 1PM       0.148000
     54 H46         -2.7710     7.3330    -0.8170 ha         1 1PM       0.149000
     55 H481        -2.2290    11.3770    -3.5340 h2         1 1PM       0.074200
     56 H482        -3.1280    11.6030    -1.9790 h2         1 1PM       0.074200
     57 H221        -4.2060    -2.3130    -1.6940 h1         1 1PM       0.058200
     58 H231        -6.4420    -2.5340    -0.5540 h1         1 1PM       0.065200
     59 H24         -6.7710     0.9650    -2.0890 h1         1 1PM       0.082200
     60 H251        -4.4890     0.9120    -0.0790 h1         1 1PM       0.081700
@<TRIPOS>BOND
     1     1     2 1   
     2     1     5 1   
     3     1     6 1   
     4     2     3 2   
     5     2    36 1   
     6     3     4 1   
     7     3    37 1   
     8     4     5 2   
     9     5    38 1   
    10     6     7 ar  
    11     6    11 ar  
    12     7     8 ar  
    13     8     9 ar  
    14     8    12 1   
    15     9    10 ar  
    16     9    39 1   
    17    10    11 ar  
    18    10    40 1   
    19    12    13 1   
    20    12    17 1   
    21    13    14 1   
    22    13    41 1   
    23    14    15 1   
    24    14    42 1   
    25    15    16 1   
    26    15    18 1   
    27    16    17 1   
    28    16    43 1   
    29    17    22 1   
    30    18    19 2   
    31    18    20 1   
    32    20    21 1   
    33    21    44 1   
    34    21    45 1   
    35    21    46 1   
    36    22    23 1   
    37    22    47 1   
    38    22    48 1   
    39    23    24 2   
    40    23    25 1   
    41    25    26 1   
    42    25    49 1   
    43    26    27 1   
    44    26    50 1   
    45    26    51 1   
    46    27    28 ar  
    47    27    32 ar  
    48    28    29 ar  
    49    28    52 1   
    50    29    30 ar  
    51    29    53 1   
    52    30    31 ar  
    53    30    33 1   
    54    31    32 ar  
    55    31    35 1   
    56    32    54 1   
    57    33    34 1   
    58    34    35 1   
    59    34    55 1   
    60    34    56 1   
    61    13    57 1   
    62    14    58 1   
    63    16    59 1   
    64    17    60 1   
@<TRIPOS>SUBSTRUCTURE
     1 1PM         1 TEMP              0 ****  ****    0 ROOT
