@<TRIPOS>MOLECULE
1PN
   37    37     1     0     0
SMALL
bcc


@<TRIPOS>ATOM
      1 S1           0.3810    -0.8640    -0.4530 ss         1 1PN      -0.219700
      2 C2           1.9190    -0.1820    -0.3540 c2         1 1PN      -0.060400
      3 C3           2.2440     0.2150     0.9080 ce         1 1PN      -0.032200
      4 N4           1.2240     0.0970     1.8930 nu         1 1PN      -0.676000
      5 C5           0.0790    -0.6300     1.3640 c3         1 1PN       0.273600
      6 C6          -0.2720    -1.9500     2.0570 c3         1 1PN      -0.210700
      7 C7           0.8000    -2.9840     1.8150 c          1 1PN       0.570900
      8 O8           0.5850    -4.1300     1.4280 o          1 1PN      -0.508100
      9 C9           3.5420     0.7760     1.3110 c          1 1PN       0.665300
     10 O10          4.0100     0.8450     2.4500 o          1 1PN      -0.539000
     11 O11          4.2830     1.2340     0.2580 os         1 1PN      -0.427900
     12 C12          5.5700     1.7920     0.5930 c3         1 1PN       0.172600
     13 C13          6.2290     2.2510    -0.6560 c2         1 1PN      -0.188200
     14 C14          5.6970     2.2140    -1.8740 c2         1 1PN      -0.189000
     15 C15         -1.6620    -2.4500     1.6320 c3         1 1PN       0.160100
     16 C16         -2.1420    -3.5770     2.5300 c3         1 1PN      -0.127100
     17 O17         -2.5520    -1.3330     1.7840 os         1 1PN      -0.436900
     18 C18         -3.6690    -1.2520     0.9830 c          1 1PN       0.630100
     19 O19         -4.3640    -0.2810     1.2820 o          1 1PN      -0.484000
     20 C20         -3.9320    -2.2320    -0.1050 c3         1 1PN      -0.191100
     21 H2           2.5730    -0.0750    -1.2230 h4         1 1PN       0.195000
     22 HN4          1.5630    -0.2290     2.7780 hn         1 1PN       0.410800
     23 H5          -0.8110     0.0600     1.4440 h2         1 1PN       0.132700
     24 H6          -0.3100    -1.7610     3.1720 hc         1 1PN       0.102700
     25 H7           1.8330    -2.6320     2.0380 h4         1 1PN       0.007200
     26 H12          5.4130     2.6480     1.3050 h1         1 1PN       0.064200
     27 H12A         6.1790     0.9980     1.1040 h1         1 1PN       0.064200
     28 H13          7.2430     2.6480    -0.4770 ha         1 1PN       0.130000
     29 H14          4.6890     1.8250    -2.0680 ha         1 1PN       0.119500
     30 H14A         6.2400     2.5740    -2.7580 ha         1 1PN       0.119500
     31 H15         -1.6160    -2.7830     0.5580 h1         1 1PN       0.065700
     32 H16         -2.1660    -3.2430     3.5950 hc         1 1PN       0.057700
     33 H16A        -3.1740    -3.8850     2.2370 hc         1 1PN       0.057700
     34 H16B        -1.4600    -4.4570     2.4320 hc         1 1PN       0.057700
     35 H20         -3.8990    -3.2780     0.2850 hc         1 1PN       0.078033
     36 H20A        -3.1680    -2.1170    -0.9140 hc         1 1PN       0.078033
     37 H20B        -4.9450    -2.0370    -0.5380 hc         1 1PN       0.078033
@<TRIPOS>BOND
     1     1     2 1   
     2     1     5 1   
     3     2     3 2   
     4     2    21 1   
     5     3     4 1   
     6     3     9 1   
     7     4     5 1   
     8     4    22 1   
     9     5     6 1   
    10     5    23 1   
    11     6     7 1   
    12     6    15 1   
    13     6    24 1   
    14     7     8 2   
    15     7    25 1   
    16     9    10 2   
    17     9    11 1   
    18    11    12 1   
    19    12    13 1   
    20    12    26 1   
    21    12    27 1   
    22    13    14 2   
    23    13    28 1   
    24    14    29 1   
    25    14    30 1   
    26    15    16 1   
    27    15    17 1   
    28    15    31 1   
    29    16    32 1   
    30    16    33 1   
    31    16    34 1   
    32    17    18 1   
    33    18    19 2   
    34    18    20 1   
    35    20    35 1   
    36    20    36 1   
    37    20    37 1   
@<TRIPOS>SUBSTRUCTURE
     1 1PN         1 TEMP              0 ****  ****    0 ROOT
