@<TRIPOS>MOLECULE
molecule
   37    37     1     0     0
SMALL
bcc


@<TRIPOS>ATOM
      1 S1           0.0000     0.0000     0.0000 ss         1 1PN      -0.216700
      2 C2           1.7700     0.0000     0.0000 c2         1 1PN      -0.087400
      3 C3           2.1770     0.0000     1.2790 ce         1 1PN       0.046800
      4 N4           1.2290     0.0010     2.2930 nu         1 1PN      -0.810000
      5 C5          -0.1590     0.0020     1.8150 c3         1 1PN       0.337600
      6 C6          -0.8890    -1.2560     2.2900 c3         1 1PN      -0.207700
      7 C7          -0.0720    -2.4740     1.9440 c          1 1PN       0.579900
      8 O8           0.3130    -3.2120     2.8200 o          1 1PN      -0.513100
      9 C9           3.5570    -0.0010     1.5900 c          1 1PN       0.659300
     10 O10          3.9190    -0.0010     2.7520 o          1 1PN      -0.551000
     11 O11          4.4730    -0.0020     0.5970 os         1 1PN      -0.417900
     12 C12          5.8480    -0.0030     0.9840 c3         1 1PN       0.181600
     13 C13          6.7170    -0.0030    -0.2470 c2         1 1PN      -0.178200
     14 C14          7.7510     0.7980    -0.3200 c2         1 1PN      -0.201000
     15 C15         -2.2530    -1.3440     1.6020 c3         1 1PN       0.148100
     16 C16         -3.0830    -0.1080     1.9530 c3         1 1PN      -0.115100
     17 O17         -2.0660    -1.4080     0.1630 os         1 1PN      -0.415900
     18 C18         -2.9900    -2.0790    -0.5430 c          1 1PN       0.625100
     19 O19         -3.9240    -2.5950     0.0230 o          1 1PN      -0.548000
     20 C20         -2.8610    -2.1880    -2.0400 c3         1 1PN      -0.139100
     21 H2           2.4100    -0.0010    -0.8740 h4         1 1PN       0.199000
     22 HN4          1.4710     0.0010     3.2640 hn         1 1PN       0.479800
     23 H5          -0.6730     0.8960     2.1480 h2         1 1PN       0.082700
     24 H6          -1.0290    -1.2080     3.3630 hc         1 1PN       0.096700
     25 H7           0.1600    -2.6940     0.9090 h4         1 1PN       0.023200
     26 H12          6.0570    -0.8870     1.5740 h1         1 1PN       0.056200
     27 H12A         6.0580     0.8820     1.5740 h1         1 1PN       0.056200
     28 H13          6.4860    -0.6660    -1.0720 ha         1 1PN       0.136000
     29 H14          8.3750     0.7980    -1.2050 ha         1 1PN       0.118000
     30 H14A         7.9810     1.4610     0.5050 ha         1 1PN       0.118000
     31 H15         -2.7710    -2.2340     1.9390 h1         1 1PN       0.085700
     32 H16         -4.0250    -0.4170     2.3890 hc         1 1PN       0.052033
     33 H16A        -3.2730     0.4670     1.0540 hc         1 1PN       0.052033
     34 H16B        -2.5390     0.5020     2.6640 hc         1 1PN       0.052033
     35 H20         -3.7610    -2.6310    -2.4490 hc         1 1PN       0.070700
     36 H20A        -2.0090    -2.8100    -2.2850 hc         1 1PN       0.070700
     37 H20B        -2.7200    -1.2000    -2.4630 hc         1 1PN       0.070700
@<TRIPOS>BOND
     1     1     2 1   
     2     1     5 1   
     3     2     3 2   
     4     3     4 1   
     5     3     9 1   
     6     4     5 1   
     7     5     6 1   
     8     6     7 1   
     9     6    15 1   
    10     7     8 2   
    11     9    10 2   
    12     9    11 1   
    13    11    12 1   
    14    12    13 1   
    15    13    14 2   
    16    15    16 1   
    17    15    17 1   
    18    17    18 1   
    19    18    19 2   
    20    18    20 1   
    21     2    21 1   
    22     4    22 1   
    23     5    23 1   
    24     6    24 1   
    25     7    25 1   
    26    12    26 1   
    27    12    27 1   
    28    13    28 1   
    29    14    29 1   
    30    14    30 1   
    31    15    31 1   
    32    16    32 1   
    33    16    33 1   
    34    16    34 1   
    35    20    35 1   
    36    20    36 1   
    37    20    37 1   
@<TRIPOS>SUBSTRUCTURE
     1 1PN         1 TEMP              0 ****  ****    0 ROOT
