@<TRIPOS>MOLECULE
1PN
   37    37     1     0     0
SMALL
bcc


@<TRIPOS>ATOM
      1 S1           0.0000     0.0000     0.0000 ss         1 1PN      -0.314700
      2 C2           1.7700     0.0000     0.0000 c2         1 1PN      -0.040400
      3 C3           2.1770     0.0000     1.2790 ce         1 1PN      -0.092200
      4 N4           1.2290     0.0010     2.2930 nu         1 1PN      -0.395000
      5 C5          -0.1590     0.0020     1.8150 c3         1 1PN       0.265600
      6 C6          -0.8890    -1.2560     2.2900 c3         1 1PN      -0.200700
      7 C7          -0.0720    -2.4740     1.9440 c          1 1PN       0.648900
      8 O8           0.3130    -3.2120     2.8200 o          1 1PN      -0.540100
      9 C9           3.5570    -0.0010     1.5900 c          1 1PN       0.725300
     10 O10          3.9190    -0.0010     2.7520 o          1 1PN      -0.590000
     11 O11          4.4730    -0.0020     0.5970 os         1 1PN      -0.398900
     12 C12          5.8480    -0.0030     0.9840 c3         1 1PN       0.267600
     13 C13          6.7170    -0.0030    -0.2470 c2         1 1PN      -0.171200
     14 C14          7.7510     0.7980    -0.3200 c2         1 1PN      -0.139000
     15 C15         -2.2530    -1.3440     1.6020 c3         1 1PN       0.187100
     16 C16         -3.0830    -0.1080     1.9530 c3         1 1PN      -0.031100
     17 O17         -2.0660    -1.4080     0.1630 os         1 1PN      -0.383900
     18 C18         -2.9900    -2.0790    -0.5430 c          1 1PN       0.681100
     19 O19         -3.9240    -2.5950     0.0230 o          1 1PN      -0.587000
     20 C20         -2.8610    -2.1880    -2.0400 c3         1 1PN      -0.037100
     21 H2           2.4100    -0.0010    -0.8740 h4         1 1PN       0.174000
     22 HN4          1.4710     0.0010     3.2640 hn         1 1PN       0.331800
     23 H5          -0.6730     0.8960     2.1480 h2         1 1PN       0.066700
     24 H6          -1.0290    -1.2080     3.3630 hc         1 1PN       0.068700
     25 H7           0.1350    -2.7100     0.9070 h4         1 1PN      -0.006800
     26 H12          6.0580     0.8810     1.5740 h1         1 1PN       0.015200
     27 H12A         6.0570    -0.8880     1.5730 h1         1 1PN       0.015200
     28 H13          6.4860    -0.6660    -1.0730 ha         1 1PN       0.110000
     29 H14          7.9810     1.4610     0.5050 ha         1 1PN       0.086500
     30 H14A         8.3750     0.7980    -1.2050 ha         1 1PN       0.086500
     31 H15         -2.7710    -2.2340     1.9390 h1         1 1PN       0.051700
     32 H16         -2.5390     0.5020     2.6640 hc         1 1PN       0.020033
     33 H16A        -4.0250    -0.4170     2.3890 hc         1 1PN       0.020033
     34 H16B        -3.2720     0.4670     1.0550 hc         1 1PN       0.020033
     35 H20         -3.7610    -2.6300    -2.4490 hc         1 1PN       0.029700
     36 H20A        -2.0090    -2.8100    -2.2850 hc         1 1PN       0.029700
     37 H20B        -2.7200    -1.2000    -2.4630 hc         1 1PN       0.029700
@<TRIPOS>BOND
     1     1     2 1   
     2     1     5 1   
     3     2     3 2   
     4     2    21 1   
     5     3     4 1   
     6     3     9 1   
     7     4     5 1   
     8     4    22 1   
     9     5     6 1   
    10     5    23 1   
    11     6     7 1   
    12     6    15 1   
    13     6    24 1   
    14     7     8 2   
    15     7    25 1   
    16     9    10 2   
    17     9    11 1   
    18    11    12 1   
    19    12    13 1   
    20    12    26 1   
    21    12    27 1   
    22    13    14 2   
    23    13    28 1   
    24    14    29 1   
    25    14    30 1   
    26    15    16 1   
    27    15    17 1   
    28    15    31 1   
    29    16    32 1   
    30    16    33 1   
    31    16    34 1   
    32    17    18 1   
    33    18    19 2   
    34    18    20 1   
    35    20    35 1   
    36    20    36 1   
    37    20    37 1   
@<TRIPOS>SUBSTRUCTURE
     1 1PN         1 TEMP              0 ****  ****    0 ROOT
