@<TRIPOS>MOLECULE
molecule
   47    49     1     0     0
SMALL
bcc


@<TRIPOS>ATOM
      1 O27          0.0000     0.0000     0.0000 o          1 1PP      -0.625100
      2 C17          1.2170     0.0000     0.0000 c          1 1PP       0.792100
      3 N18          1.8900     0.0000     1.1680 ns         1 1PP      -0.483100
      4 C19          1.1930     0.0950     2.3770 ca         1 1PP       0.087600
      5 C20          1.7450     0.7900     3.4460 ca         1 1PP      -0.006600
      6 Cl1          3.3010     1.5440     3.2820 cl         1 1PP      -0.092400
      7 C21          1.0530     0.8820     4.6400 ca         1 1PP       0.046400
      8 Cl2          1.7400     1.7520     5.9770 cl         1 1PP      -0.084400
      9 C22         -0.1880     0.2830     4.7700 ca         1 1PP      -0.129000
     10 C23         -0.7380    -0.4100     3.7080 ca         1 1PP      -0.103000
     11 C24         -0.0550    -0.5010     2.5110 ca         1 1PP      -0.118000
     12 N16          1.8900    -0.0060    -1.1670 ns         1 1PP      -0.466100
     13 C11          1.1940    -0.0110    -2.3750 cc         1 1PP       0.077300
     14 C10         -0.1600    -0.0110    -2.5240 cd         1 1PP      -0.339300
     15 C9          -0.4400    -0.0180    -3.8930 cd         1 1PP       0.367600
     16 C12         -1.8150    -0.0190    -4.5110 c3         1 1PP      -0.084300
     17 C15         -2.4320     1.3760    -4.3850 c3         1 1PP      -0.080767
     18 C14         -1.7100    -0.4000    -5.9880 c3         1 1PP      -0.080767
     19 C13         -2.6990    -1.0350    -3.7840 c3         1 1PP      -0.080767
     20 N8           0.6920    -0.0210    -4.5490 nc         1 1PP      -0.502800
     21 N7           1.7410    -0.0120    -3.6200 na         1 1PP       0.117300
     22 C5           3.1100    -0.0080    -3.9210 ca         1 1PP       0.041800
     23 C6           3.5800    -0.6980    -5.0300 ca         1 1PP      -0.148000
     24 C4           3.9970     0.6910    -3.1130 ca         1 1PP      -0.148000
     25 C3           5.3460     0.6930    -3.4120 ca         1 1PP      -0.108000
     26 C2           5.8120    -0.0000    -4.5150 ca         1 1PP      -0.138000
     27 C1           4.9310    -0.6920    -5.3230 ca         1 1PP      -0.108000
     28 H18          2.8850    -0.1000     1.1710 hn         1 1PP       0.330500
     29 H22         -0.7270     0.3540     5.7060 ha         1 1PP       0.151000
     30 H23         -1.7110    -0.8760     3.8120 ha         1 1PP       0.146000
     31 H24         -0.4880    -1.0440     1.6800 ha         1 1PP       0.179000
     32 H16          2.8900    -0.0410    -1.1670 hn         1 1PP       0.328500
     33 H10         -0.8890    -0.0630    -1.7240 ha         1 1PP       0.201000
     34 H151        -1.7710     2.1050    -4.8380 hc         1 1PP       0.040144
     35 H152        -2.5720     1.6160    -3.3380 hc         1 1PP       0.040144
     36 H153        -3.3900     1.3940    -4.8910 hc         1 1PP       0.040144
     37 H141        -1.1240     0.3460    -6.5130 hc         1 1PP       0.040144
     38 H142        -1.2290    -1.3660    -6.0790 hc         1 1PP       0.040144
     39 H143        -2.7030    -0.4480    -6.4200 hc         1 1PP       0.040144
     40 H131        -2.1760    -1.9810    -3.7100 hc         1 1PP       0.040144
     41 H132        -3.6190    -1.1740    -4.3380 hc         1 1PP       0.040144
     42 H133        -2.9270    -0.6700    -2.7900 hc         1 1PP       0.040144
     43 H6           2.8900    -1.2410    -5.6640 ha         1 1PP       0.146500
     44 H4           3.6320     1.2330    -2.2490 ha         1 1PP       0.146500
     45 H3           6.0390     1.2360    -2.7810 ha         1 1PP       0.137500
     46 H2           6.8700     0.0030    -4.7470 ha         1 1PP       0.135000
     47 H1           5.2990    -1.2320    -6.1870 ha         1 1PP       0.137500
@<TRIPOS>BOND
     1     1     2 2   
     2     2     3 1   
     3     2    12 1   
     4     3     4 1   
     5     3    28 1   
     6     4     5 ar  
     7     4    11 ar  
     8     5     6 1   
     9     5     7 ar  
    10     7     8 1   
    11     7     9 ar  
    12     9    10 ar  
    13     9    29 1   
    14    10    11 ar  
    15    10    30 1   
    16    11    31 1   
    17    12    13 1   
    18    12    32 1   
    19    13    14 2   
    20    13    21 1   
    21    14    15 1   
    22    14    33 1   
    23    15    16 1   
    24    15    20 2   
    25    16    17 1   
    26    16    18 1   
    27    16    19 1   
    28    17    34 1   
    29    17    35 1   
    30    17    36 1   
    31    18    37 1   
    32    18    38 1   
    33    18    39 1   
    34    19    40 1   
    35    19    41 1   
    36    19    42 1   
    37    20    21 1   
    38    21    22 1   
    39    22    23 ar  
    40    22    24 ar  
    41    23    27 ar  
    42    23    43 1   
    43    24    25 ar  
    44    24    44 1   
    45    25    26 ar  
    46    25    45 1   
    47    26    27 ar  
    48    26    46 1   
    49    27    47 1   
@<TRIPOS>SUBSTRUCTURE
     1 1PP         1 TEMP              0 ****  ****    0 ROOT
