@<TRIPOS>MOLECULE
1PP
   47    49     1     0     0
SMALL
bcc


@<TRIPOS>ATOM
      1 O27          0.0660     0.3820    -0.0710 o          1 1PP      -0.591100
      2 C17          1.2550     0.0110     0.0150 c          1 1PP       0.770100
      3 N18          1.8650    -0.2940     1.2550 ns         1 1PP      -0.460100
      4 C19          1.2780     0.0520     2.4870 ca         1 1PP       0.078600
      5 C20          2.1030     0.4260     3.5810 ca         1 1PP      -0.034600
      6 Cl1          3.7900     0.5440     3.3790 cl         1 1PP      -0.079400
      7 C21          1.5330     0.6920     4.8320 ca         1 1PP       0.041400
      8 Cl2          2.5040     1.1280     6.1550 cl         1 1PP      -0.067400
      9 C22          0.1500     0.6090     5.0130 ca         1 1PP      -0.138000
     10 C23         -0.6610     0.2530     3.9400 ca         1 1PP      -0.099000
     11 C24         -0.1160    -0.0280     2.6920 ca         1 1PP      -0.128000
     12 N16          2.0690    -0.1140    -1.1390 ns         1 1PP      -0.438100
     13 C11          1.4810    -0.1440    -2.4050 cc         1 1PP       0.020300
     14 C10          0.3890     0.5850    -2.9050 cd         1 1PP      -0.269300
     15 C9           0.2770     0.1900    -4.2980 cd         1 1PP       0.335600
     16 C12         -0.7710     0.7100    -5.2330 c3         1 1PP      -0.076300
     17 C15         -0.6520     2.2300    -5.3020 c3         1 1PP      -0.085100
     18 C14         -2.1440     0.3330    -4.6850 c3         1 1PP      -0.085100
     19 C13         -0.6200     0.1350    -6.6350 c3         1 1PP      -0.085100
     20 N8           1.2450    -0.7100    -4.6130 nc         1 1PP      -0.494800
     21 N7           1.9330    -0.9780    -3.4850 na         1 1PP       0.125300
     22 C5           3.1810    -1.6660    -3.4820 ca         1 1PP       0.011800
     23 C6           3.4430    -2.6220    -2.4780 ca         1 1PP      -0.134000
     24 C4           4.1460    -1.4270    -4.4810 ca         1 1PP      -0.134000
     25 C3           5.3530    -2.1220    -4.4560 ca         1 1PP      -0.120000
     26 C2           5.6180    -3.0510    -3.4510 ca         1 1PP      -0.129000
     27 C1           4.6600    -3.2980    -2.4690 ca         1 1PP      -0.120000
     28 H18          2.8610    -0.3680     1.2740 hn         1 1PP       0.319500
     29 H22         -0.2920     0.8260     5.9980 ha         1 1PP       0.154000
     30 H23         -1.7520     0.1890     4.0780 ha         1 1PP       0.147000
     31 H24         -0.7820    -0.3030     1.8570 ha         1 1PP       0.178000
     32 H16          2.9550    -0.5660    -1.0560 hn         1 1PP       0.320500
     33 H10         -0.2480     1.2710    -2.3550 ha         1 1PP       0.190000
     34 H151         0.3400     2.5220    -5.7210 hc         1 1PP       0.039700
     35 H152        -1.4550     2.6420    -5.9600 hc         1 1PP       0.039700
     36 H153        -0.7570     2.6750    -4.2840 hc         1 1PP       0.039700
     37 H141        -2.2550    -0.7770    -4.6490 hc         1 1PP       0.039700
     38 H142        -2.9420     0.7530    -5.3430 hc         1 1PP       0.039700
     39 H143        -2.2760     0.7400    -3.6540 hc         1 1PP       0.039700
     40 H131         0.3750     0.4030    -7.0640 hc         1 1PP       0.039700
     41 H132        -1.4170     0.5500    -7.2970 hc         1 1PP       0.039700
     42 H133        -0.7140    -0.9760    -6.6150 hc         1 1PP       0.039700
     43 H6           2.6840    -2.8630    -1.7180 ha         1 1PP       0.150500
     44 H4           3.9500    -0.7020    -5.2870 ha         1 1PP       0.150500
     45 H3           6.1020    -1.9320    -5.2410 ha         1 1PP       0.139000
     46 H2           6.5750    -3.5920    -3.4380 ha         1 1PP       0.139000
     47 H1           4.8590    -4.0430    -1.6820 ha         1 1PP       0.139000
@<TRIPOS>BOND
     1     1     2 2   
     2     2     3 1   
     3     2    12 1   
     4     3     4 1   
     5     3    28 1   
     6     4     5 ar  
     7     4    11 ar  
     8     5     6 1   
     9     5     7 ar  
    10     7     8 1   
    11     7     9 ar  
    12     9    10 ar  
    13     9    29 1   
    14    10    11 ar  
    15    10    30 1   
    16    11    31 1   
    17    12    13 1   
    18    12    32 1   
    19    13    14 2   
    20    13    21 1   
    21    14    15 1   
    22    14    33 1   
    23    15    16 1   
    24    15    20 2   
    25    16    17 1   
    26    16    18 1   
    27    16    19 1   
    28    17    34 1   
    29    17    35 1   
    30    17    36 1   
    31    18    37 1   
    32    18    38 1   
    33    18    39 1   
    34    19    40 1   
    35    19    41 1   
    36    19    42 1   
    37    20    21 1   
    38    21    22 1   
    39    22    23 ar  
    40    22    24 ar  
    41    23    27 ar  
    42    23    43 1   
    43    24    25 ar  
    44    24    44 1   
    45    25    26 ar  
    46    25    45 1   
    47    26    27 ar  
    48    26    46 1   
    49    27    47 1   
@<TRIPOS>SUBSTRUCTURE
     1 1PP         1 TEMP              0 ****  ****    0 ROOT
