@<TRIPOS>MOLECULE
1PQ
   41    42     1     0     0
SMALL
bcc


@<TRIPOS>ATOM
      1 C1          -0.5450     0.4490     0.1910 c3         1 1PQ       0.110700
      2 O1           0.8630     0.5420     0.0020 os         1 1PQ      -0.317900
      3 C2           1.6520     0.3950     1.1250 ca         1 1PQ       0.139100
      4 C3           1.1570    -0.0550     2.3720 ca         1 1PQ      -0.178000
      5 C4           2.0110    -0.2040     3.4580 ca         1 1PQ       0.068300
      6 N1           1.4670    -0.5650     4.7230 nu         1 1PQ      -0.698600
      7 C5           1.0710    -1.9610     4.8500 c3         1 1PQ       0.180500
      8 C6           2.2230    -2.9660     4.8880 c3         1 1PQ      -0.139100
      9 C7           0.1480    -2.1700     6.0640 c3         1 1PQ      -0.097400
     10 C8           0.7670    -1.8230     7.4030 c3         1 1PQ      -0.113400
     11 C9           0.7770    -2.9940     8.3770 c3         1 1PQ       0.102800
     12 N2           1.7450    -4.0590     7.9740 nz         1 1PQ      -0.844600
     13 C10          3.4220     0.0840     3.3000 ca         1 1PQ       0.334600
     14 N3           4.2900    -0.1000     4.3640 nb         1 1PQ      -0.700000
     15 C11          5.5640     0.1950     4.1870 ca         1 1PQ       0.413200
     16 C12          6.1130     0.6910     2.9610 ca         1 1PQ      -0.235300
     17 C13          5.2720     0.8650     1.8940 ca         1 1PQ      -0.076000
     18 C14          3.8830     0.5550     2.0330 ca         1 1PQ      -0.099300
     19 C15          2.9920     0.7060     0.9520 ca         1 1PQ      -0.150000
     20 H1          -0.9560     0.7100    -0.8190 h1         1 1PQ       0.050033
     21 H2          -0.8330    -0.5930     0.4730 h1         1 1PQ       0.050033
     22 H3          -0.8950     1.1790     0.9600 h1         1 1PQ       0.050033
     23 H4           0.0830    -0.2710     2.4820 ha         1 1PQ       0.149000
     24 H5           2.0760    -0.2920     5.4730 hn         1 1PQ       0.388800
     25 H6           0.4480    -2.2040     3.9330 h1         1 1PQ       0.082700
     26 H7           2.8910    -2.7910     5.7660 hc         1 1PQ       0.038367
     27 H8           1.8230    -4.0080     4.9200 hc         1 1PQ       0.038367
     28 H9           2.8480    -2.8640     3.9650 hc         1 1PQ       0.038367
     29 H10         -0.1970    -3.2370     6.0450 hc         1 1PQ       0.061200
     30 H11         -0.7680    -1.5340     5.9170 hc         1 1PQ       0.061200
     31 H12          1.8080    -1.4180     7.2860 hc         1 1PQ       0.093700
     32 H13          0.1640    -1.0080     7.8940 hc         1 1PQ       0.093700
     33 H14         -0.2470    -3.4650     8.4320 hx         1 1PQ       0.110700
     34 H15          1.0710    -2.6390     9.4070 hx         1 1PQ       0.110700
     35 H16          1.5660    -4.3340     6.9980 hn         1 1PQ       0.462133
     36 H17          1.6540    -4.8750     8.5840 hn         1 1PQ       0.462133
     37 H19          6.2290     0.0410     5.0570 h4         1 1PQ       0.020100
     38 H20          7.1860     0.9200     2.9040 ha         1 1PQ       0.156000
     39 H21          5.6360     1.2410     0.9260 ha         1 1PQ       0.153000
     40 H22          3.3580     1.0650    -0.0220 ha         1 1PQ       0.165000
     41 H23          2.7040    -3.6990     8.0300 hn         1 1PQ       0.462133
@<TRIPOS>BOND
     1     1     2 1   
     2     1    20 1   
     3     1    21 1   
     4     1    22 1   
     5     2     3 1   
     6     3     4 ar  
     7     3    19 ar  
     8     4     5 ar  
     9     4    23 1   
    10     5     6 1   
    11     5    13 ar  
    12     6     7 1   
    13     6    24 1   
    14     7     8 1   
    15     7     9 1   
    16     7    25 1   
    17     8    26 1   
    18     8    27 1   
    19     8    28 1   
    20     9    10 1   
    21     9    29 1   
    22     9    30 1   
    23    10    11 1   
    24    10    31 1   
    25    10    32 1   
    26    11    12 1   
    27    11    33 1   
    28    11    34 1   
    29    12    35 1   
    30    12    36 1   
    31    12    41 1   
    32    13    14 ar  
    33    13    18 ar  
    34    14    15 ar  
    35    15    16 ar  
    36    15    37 1   
    37    16    17 ar  
    38    16    38 1   
    39    17    18 ar  
    40    17    39 1   
    41    18    19 ar  
    42    19    40 1   
@<TRIPOS>SUBSTRUCTURE
     1 1PQ         1 TEMP              0 ****  ****    0 ROOT
