@<TRIPOS>MOLECULE
molecule
   41    42     1     0     0
SMALL
bcc


@<TRIPOS>ATOM
      1 C1           0.0000     0.0000     0.0000 c3         1 1PQ       0.126700
      2 O1           1.4290     0.0000     0.0000 os         1 1PQ      -0.326900
      3 C2           2.0460     0.0000     1.2100 ca         1 1PQ       0.196100
      4 C3           3.4420    -0.0010     1.2730 ca         1 1PQ      -0.249000
      5 C4           4.0920    -0.0010     2.4870 ca         1 1PQ       0.180300
      6 N1           5.4850    -0.0010     2.5350 nu         1 1PQ      -0.818600
      7 C5           6.2610     0.0000     1.2920 c3         1 1PQ       0.240500
      8 C6           6.4230     1.4380     0.7940 c3         1 1PQ      -0.115100
      9 C7           7.6390    -0.6080     1.5520 c3         1 1PQ      -0.084400
     10 C8           7.4830    -2.0830     1.9300 c3         1 1PQ      -0.113400
     11 C9           8.8610    -2.6920     2.1900 c3         1 1PQ       0.089800
     12 N2           8.7110    -4.1070     2.5530 nz         1 1PQ      -0.810600
     13 C10          3.3400    -0.0010     3.6830 ca         1 1PQ       0.338600
     14 N3           3.9460    -0.0020     4.8740 nb         1 1PQ      -0.701000
     15 C11          3.2570    -0.0020     5.9900 ca         1 1PQ       0.401200
     16 C12          1.8640    -0.0030     5.9910 ca         1 1PQ      -0.238300
     17 C13          1.1820    -0.0020     4.8080 ca         1 1PQ      -0.092000
     18 C14          1.9260    -0.0010     3.6120 ca         1 1PQ      -0.060300
     19 C15          1.2910     0.0050     2.3610 ca         1 1PQ      -0.269000
     20 H1          -0.3610    -0.8940     0.4930 h1         1 1PQ       0.048033
     21 H2          -0.3610     0.8740     0.5280 h1         1 1PQ       0.048033
     22 H3          -0.3610     0.0200    -1.0210 h1         1 1PQ       0.048033
     23 H4           4.0190    -0.0030     0.3570 ha         1 1PQ       0.144000
     24 H5           5.9540     0.0440     3.4180 hn         1 1PQ       0.454800
     25 H6           5.7430    -0.5850     0.5420 h1         1 1PQ       0.066700
     26 H7           7.1560     1.4640    -0.0030 hc         1 1PQ       0.054033
     27 H8           5.4730     1.8020     0.4230 hc         1 1PQ       0.054033
     28 H9           6.7570     2.0670     1.6110 hc         1 1PQ       0.054033
     29 H10          8.1220    -0.0770     2.3630 hc         1 1PQ       0.063700
     30 H11          8.2450    -0.5270     0.6570 hc         1 1PQ       0.063700
     31 H12          7.0010    -2.6140     1.1190 hc         1 1PQ       0.073200
     32 H13          6.8780    -2.1640     2.8250 hc         1 1PQ       0.073200
     33 H14          9.3440    -2.1610     3.0010 hx         1 1PQ       0.111200
     34 H15          9.4670    -2.6120     1.2950 hx         1 1PQ       0.111200
     35 H16          8.2860    -4.6030     1.7940 hn         1 1PQ       0.457467
     36 H17          8.1340    -4.1840     3.3670 hn         1 1PQ       0.457467
     37 H19          3.8310    -0.0040     6.9090 h4         1 1PQ       0.021100
     38 H20          1.3780    -0.0030     6.9600 ha         1 1PQ       0.144000
     39 H21          0.1130     0.0010     4.9820 ha         1 1PQ       0.152000
     40 H22          0.2120    -0.0730     2.3000 ha         1 1PQ       0.147000
     41 H23          9.6120    -4.4990     2.7470 hn         1 1PQ       0.457467
@<TRIPOS>BOND
     1    17    16 ar
     2    17    18 ar
     3    16    15 ar
     4    19    18 ar
     5    19     3 ar
     6    18    13 ar
     7     2     3 1
     8     2     1 1
     9     3     4 ar
    10    15    14 ar
    11    13    14 ar
    12    13     5 ar
    13    12    11 1
    14     4     5 ar
    15     5     6 1
    16     8     7 1
    17     6     7 1
    18    11    10 1
    19     7     9 1
    20    10     9 1
    21     1    20 1
    22     1    21 1
    23     1    22 1
    24     4    23 1
    25     6    24 1
    26     7    25 1
    27     8    26 1
    28     8    27 1
    29     8    28 1
    30     9    29 1
    31     9    30 1
    32    10    31 1
    33    10    32 1
    34    11    33 1
    35    11    34 1
    36    12    35 1
    37    12    36 1
    38    15    37 1
    39    16    38 1
    40    17    39 1
    41    19    40 1
    42    41    12 1
@<TRIPOS>SUBSTRUCTURE
     1 1PQ         1 TEMP              0 ****  ****    0 ROOT
