@<TRIPOS>MOLECULE
1PS
   24    24     1     0     0
SMALL
bcc


@<TRIPOS>ATOM
      1 N1           0.0980     0.1370    -0.0620 na         1 1PS       0.021900
      2 C1           1.4560     0.2370     0.0680 ca         1 1PS       0.043200
      3 C2           2.0410     0.5080     1.3190 ca         1 1PS      -0.158500
      4 C3          -0.7050     0.3730     1.0280 ca         1 1PS       0.043200
      5 C4          -0.1620     0.6500     2.2810 ca         1 1PS      -0.158500
      6 C5           1.2320     0.7250     2.4290 ca         1 1PS      -0.015000
      7 C6          -0.5130    -0.1250    -1.3710 c3         1 1PS       0.001300
      8 C7          -1.3730     1.0130    -1.9280 c3         1 1PS      -0.037400
      9 C8          -0.5700     2.1280    -2.5280 c3         1 1PS      -0.315600
     10 S1           0.3730     3.0920    -1.3570 s6         1 1PS       1.432800
     11 O1           0.5420     4.3470    -1.9440 o          1 1PS      -0.746533
     12 O2           1.5600     2.3040    -1.2050 o          1 1PS      -0.746533
     13 O3          -0.3970     3.0340    -0.1670 o          1 1PS      -0.746533
     14 H1           2.0760     0.1400    -0.8500 h4         1 1PS       0.208500
     15 H2           3.1370     0.5940     1.3750 ha         1 1PS       0.177000
     16 H3          -1.7980     0.3600     0.8540 h4         1 1PS       0.208500
     17 H4          -0.8360     0.8460     3.1280 ha         1 1PS       0.177000
     18 H5           1.6720     0.9710     3.4080 ha         1 1PS       0.163000
     19 H61         -1.1520    -1.0460    -1.2460 h1         1 1PS       0.076200
     20 H62          0.3150    -0.3490    -2.1020 h1         1 1PS       0.076200
     21 H71         -2.0290     0.5450    -2.7120 hc         1 1PS       0.059700
     22 H72         -2.0430     1.4280    -1.1270 hc         1 1PS       0.059700
     23 H81         -1.2690     2.8210    -3.0610 h1         1 1PS       0.087700
     24 H82          0.1280     1.7280    -3.3030 h1         1 1PS       0.087700
@<TRIPOS>BOND
     1     1     2 1   
     2     1     4 2   
     3     1     7 1   
     4     2     3 ar  
     5     2    14 1   
     6     3     6 ar  
     7     3    15 1   
     8     4     5 ar  
     9     4    16 1   
    10     5     6 ar  
    11     5    17 1   
    12     6    18 1   
    13     7     8 1   
    14     7    19 1   
    15     7    20 1   
    16     8     9 1   
    17     8    21 1   
    18     8    22 1   
    19     9    10 1   
    20     9    23 1   
    21     9    24 1   
    22    10    11 1   
    23    10    12 1   
    24    10    13 1   
@<TRIPOS>SUBSTRUCTURE
     1 1PS         1 TEMP              0 ****  ****    0 ROOT
