@<TRIPOS>MOLECULE
molecule
   24    24     1     0     0
SMALL
bcc


@<TRIPOS>ATOM
      1 N1           0.0000     0.0000     0.0000 na         1 1PS       0.090900
      2 C1           1.3190     0.0000     0.0000 ca         1 1PS      -0.036800
      3 C2           2.0250     0.0000     1.1880 ca         1 1PS      -0.140000
      4 C3          -0.6940     0.0060     1.1220 ca         1 1PS      -0.036800
      5 C4          -0.0550     0.0020     2.3470 ca         1 1PS      -0.140000
      6 C5           1.3300     0.0020     2.3880 ca         1 1PS      -0.032000
      7 C6          -0.7130    -0.0000    -1.2800 c3         1 1PS      -0.025700
      8 C7          -0.9610    -1.4430    -1.7250 c3         1 1PS      -0.063400
      9 C8          -1.7070    -1.4440    -3.0620 c3         1 1PS      -0.255600
     10 S1          -2.0000    -3.1550    -3.5890 s6         1 1PS       1.237800
     11 O1          -2.7090    -3.1500    -4.8600 o          1 1PS      -0.683200
     12 O2          -2.8020    -3.8360    -2.5850 o          1 1PS      -0.683200
     13 O3          -0.7250    -3.8370    -3.7420 o          1 1PS      -0.683200
     14 H1           1.8540    -0.0030    -0.9420 h4         1 1PS       0.209000
     15 H2           3.1090     0.0000     1.1810 ha         1 1PS       0.187000
     16 H3          -1.7760     0.0060     1.0820 h4         1 1PS       0.209000
     17 H4          -0.6300     0.0050     3.2650 ha         1 1PS       0.187000
     18 H5           1.8580     0.0000     3.3340 ha         1 1PS       0.178000
     19 H61         -0.1170     0.5100    -2.0260 h1         1 1PS       0.092700
     20 H62         -1.6620     0.5100    -1.1650 h1         1 1PS       0.092700
     21 H71         -0.0130    -1.9540    -1.8400 hc         1 1PS       0.071700
     22 H72         -1.5580    -1.9540    -0.9790 hc         1 1PS       0.071700
     23 H81         -1.1100    -0.9330    -3.8080 h1         1 1PS       0.075700
     24 H82         -2.6550    -0.9330    -2.9470 h1         1 1PS       0.075700
@<TRIPOS>BOND
     1     1     2 1
     2     1     4 2
     3     1     7 1
     4     2     3 ar
     5     2    14 1
     6     3     6 ar
     7     3    15 1
     8     4     5 ar
     9     4    16 1
    10     5     6 ar
    11     5    17 1
    12     6    18 1
    13     7     8 1
    14     7    19 1
    15     7    20 1
    16     8     9 1
    17     8    21 1
    18     8    22 1
    19     9    10 1
    20     9    23 1
    21     9    24 1
    22    10    11 1
    23    10    12 1
    24    10    13 1
@<TRIPOS>SUBSTRUCTURE
     1 1PS         1 TEMP              0 ****  ****    0 ROOT
