@<TRIPOS>MOLECULE
1PS
   24    24     1     0     0
SMALL
bcc


@<TRIPOS>ATOM
      1 N1         -0.2890   -0.0640   -0.2410 na        1 1PS      0.043900
      2 C1          0.9840   -0.3290   -0.6460 ca        1 1PS      0.007200
      3 C2          1.9930   -0.6230    0.2970 ca        1 1PS     -0.157000
      4 C3         -0.6020   -0.1180    1.0970 ca        1 1PS      0.007200
      5 C4          0.3640   -0.4070    2.0550 ca        1 1PS     -0.157000
      6 C5          1.6830   -0.6720    1.6480 ca        1 1PS     -0.028000
      7 C6         -1.3640    0.1680   -1.2180 c3        1 1PS     -0.023700
      8 C7         -2.3210   -1.0210   -1.3880 c3        1 1PS     -0.029400
      9 C8         -2.0440   -1.8080   -2.6360 c3        1 1PS     -0.315600
     10 S1         -0.3620   -2.3400   -2.8650 s6        1 1PS      1.429800
     11 O1         -0.4220   -3.4420   -3.7180 o         1 1PS     -0.745867
     12 O2          0.1270   -2.5720   -1.5440 o         1 1PS     -0.745867
     13 O3          0.2780   -1.1630   -3.3630 o         1 1PS     -0.745867
     14 H1          1.1920   -0.3340   -1.7510 h4        1 1PS      0.227000
     15 H2          3.0050   -0.8470   -0.0780 ha        1 1PS      0.177500
     16 H3         -1.6580    0.0720    1.3680 h4        1 1PS      0.227000
     17 H4          0.0810   -0.4410    3.1170 ha        1 1PS      0.177500
     18 H5          2.4520   -0.9230    2.3970 ha        1 1PS      0.164000
     19 H61        -0.8820    0.4080   -2.2150 h1        1 1PS      0.100700
     20 H62        -1.9360    1.0700   -0.8590 h1        1 1PS      0.100700
     21 H71        -2.2700   -1.7050   -0.4990 hc        1 1PS      0.052200
     22 H72        -3.3610   -0.6000   -1.4260 hc        1 1PS      0.052200
     23 H81        -2.3330   -1.2010   -3.5310 h1        1 1PS      0.090700
     24 H82        -2.7070   -2.7090   -2.6420 h1        1 1PS      0.090700
@<TRIPOS>BOND
     1    1    2 1   
     2    1    4 2   
     3    1    7 1   
     4    2    3 ar  
     5    2   14 1   
     6    3    6 ar  
     7    3   15 1   
     8    4    5 ar  
     9    4   16 1   
    10    5    6 ar  
    11    5   17 1   
    12    6   18 1   
    13    7    8 1   
    14    7   19 1   
    15    7   20 1   
    16    8    9 1   
    17    8   21 1   
    18    8   22 1   
    19    9   10 1   
    20    9   23 1   
    21    9   24 1   
    22   10   11 1   
    23   10   12 1   
    24   10   13 1   
@<TRIPOS>SUBSTRUCTURE
     1 1PS         1 TEMP              0 ****  ****    0 ROOT
