@<TRIPOS>MOLECULE
1PU
   39    42     1     0     0
SMALL
bcc


@<TRIPOS>ATOM
      1 C1           0.0290    -0.1610    -0.0210 ca         1 1PU      -0.133300
      2 C2           1.5340    -0.2100    -0.1360 c3         1 1PU       0.092000
      3 C3          -0.5050    -1.3940    -0.4660 ca         1 1PU      -0.139600
      4 C7           0.6320    -2.3010    -0.8100 c          1 1PU       0.682100
      5 C6           2.2940    -0.0830     1.1970 c3         1 1PU      -0.097400
      6 C4          -0.8130     0.8780     0.3970 ca         1 1PU       0.086600
      7 N5           1.8510    -1.5450    -0.7250 n          1 1PU      -0.393800
      8 C8          -1.8660    -1.6220    -0.5080 ca         1 1PU      -0.080000
      9 C9          -2.2120     0.6330     0.3560 ca         1 1PU      -0.122000
     10 N10         -0.2370     2.0680     0.8710 ns         1 1PU      -0.452100
     11 C11          2.9750    -2.1220    -0.0020 c3         1 1PU       0.051000
     12 C12          3.2290    -1.2870     1.2680 c3         1 1PU      -0.100400
     13 O13          0.5680    -3.4880    -1.1470 o          1 1PU      -0.577500
     14 C14         -2.7120    -0.5850    -0.0890 ca         1 1PU      -0.123000
     15 C15         -0.8990     3.2930     0.9190 c          1 1PU       0.793100
     16 N16         -0.2260     4.4870     1.2630 ns         1 1PU      -0.560400
     17 O17         -2.1290     3.4240     0.7090 o          1 1PU      -0.629100
     18 C18          1.1360     4.7390     1.4560 ca         1 1PU       0.555200
     19 C19          1.5240     6.0800     1.7810 ca         1 1PU      -0.293300
     20 N20          2.0650     3.7400     1.3380 nb         1 1PU      -0.751000
     21 C21          2.8700     6.3620     1.9800 ca         1 1PU      -0.052000
     22 C22          3.3540     4.0560     1.5380 ca         1 1PU       0.441200
     23 C23          3.8150     5.3410     1.8590 ca         1 1PU      -0.283300
     24 H2           1.8880     0.5730    -0.8640 h1         1 1PU       0.087700
     25 H61          2.8670     0.8770     1.2210 hc         1 1PU       0.058700
     26 H62          1.5820    -0.0800     2.0580 hc         1 1PU       0.058700
     27 H8          -2.2710    -2.5830    -0.8590 ha         1 1PU       0.155000
     28 H9          -2.9170     1.4190     0.6750 ha         1 1PU       0.177000
     29 H10          0.7580     2.0430     0.9790 hn         1 1PU       0.355500
     30 H111         3.8690    -2.0750    -0.6830 h1         1 1PU       0.064700
     31 H112         2.7820    -3.2010     0.2470 h1         1 1PU       0.064700
     32 H121         3.0230    -1.8960     2.1810 hc         1 1PU       0.052700
     33 H122         4.2980    -0.9640     1.3070 hc         1 1PU       0.052700
     34 H14         -3.8020    -0.7370    -0.1130 ha         1 1PU       0.142000
     35 H16         -0.8310     5.2810     1.3190 hn         1 1PU       0.348500
     36 H19          0.7720     6.8760     1.8730 ha         1 1PU       0.148000
     37 H21          3.1860     7.3860     2.2300 ha         1 1PU       0.144000
     38 H22          4.0580     3.2090     1.4300 h4         1 1PU       0.023100
     39 H23          4.8850     5.5310     2.0090 ha         1 1PU       0.151000
@<TRIPOS>BOND
     1     1     2 1   
     2     1     3 ar  
     3     1     6 ar  
     4     2     5 1   
     5     2     7 1   
     6     2    24 1   
     7     3     4 1   
     8     3     8 ar  
     9     4     7 1   
    10     4    13 2   
    11     5    12 1   
    12     5    25 1   
    13     5    26 1   
    14     6     9 ar  
    15     6    10 1   
    16     7    11 1   
    17     8    14 ar  
    18     8    27 1   
    19     9    14 ar  
    20     9    28 1   
    21    10    15 1   
    22    10    29 1   
    23    11    12 1   
    24    11    30 1   
    25    11    31 1   
    26    12    32 1   
    27    12    33 1   
    28    14    34 1   
    29    15    16 1   
    30    15    17 2   
    31    16    18 1   
    32    16    35 1   
    33    18    19 ar  
    34    18    20 ar  
    35    19    21 ar  
    36    19    36 1   
    37    20    22 ar  
    38    21    23 ar  
    39    21    37 1   
    40    22    23 ar  
    41    22    38 1   
    42    23    39 1   
@<TRIPOS>SUBSTRUCTURE
     1 1PU         1 TEMP              0 ****  ****    0 ROOT
