@<TRIPOS>MOLECULE
1PU
   39    42     1     0     0
SMALL
bcc


@<TRIPOS>ATOM
      1 C1           0.0000     0.0000     0.0000 ca         1 1PU      -0.144300
      2 C2           1.5030     0.0000     0.0000 c3         1 1PU       0.053000
      3 C3          -0.3870    -1.1160    -0.7490 ca         1 1PU      -0.148600
      4 C7           0.8370    -1.8050    -1.2120 c          1 1PU       0.699100
      5 C6           2.0790     0.0000     1.4250 c3         1 1PU      -0.037400
      6 C4          -0.9560     0.8210     0.5670 ca         1 1PU      -0.045400
      7 N5           1.8930    -1.3200    -0.5540 n          1 1PU      -0.182800
      8 C8          -1.7450    -1.3740    -0.9420 ca         1 1PU      -0.040000
      9 C9          -2.3070     0.5480     0.3750 ca         1 1PU      -0.098000
     10 N10         -0.5660     1.9270     1.3280 ns         1 1PU      -0.057100
     11 C11          3.2810    -1.5010    -0.0970 c3         1 1PU       0.112000
     12 C12          3.2730    -0.9820     1.3610 c3         1 1PU      -0.041400
     13 O13          0.8750    -2.6760    -2.0570 o          1 1PU      -0.662500
     14 C14         -2.6930    -0.5440    -0.3790 ca         1 1PU      -0.092000
     15 C15         -1.3990     2.4310     2.2620 c          1 1PU       0.539100
     16 N16         -1.0760     3.5650     2.9110 ns         1 1PU      -0.127400
     17 O17         -2.4390     1.8580     2.5180 o          1 1PU      -0.622100
     18 C18         -1.9800     4.1400     3.8030 ca         1 1PU       0.372200
     19 C19         -1.6850     5.3650     4.3890 ca         1 1PU      -0.273300
     20 N20         -3.1150     3.5180     4.0780 nb         1 1PU      -0.551000
     21 C21         -2.5920     5.9250     5.2730 ca         1 1PU      -0.038000
     22 C22         -3.9960     4.0250     4.9190 ca         1 1PU       0.433200
     23 C23         -3.7670     5.2370     5.5370 ca         1 1PU      -0.256300
     24 H2           1.9030     0.8130    -0.5930 h1         1 1PU       0.039700
     25 H61          1.3380    -0.3540     2.1310 hc         1 1PU       0.024700
     26 H62          2.4220     0.9920     1.6920 hc         1 1PU       0.024700
     27 H8          -2.0550    -2.2280    -1.5320 ha         1 1PU       0.115000
     28 H9          -3.0570     1.1950     0.8130 ha         1 1PU       0.162000
     29 H10          0.3110     2.3730     1.1480 hn         1 1PU       0.160500
     30 H111         3.5530    -2.5500    -0.1220 h1         1 1PU       0.020700
     31 H112         3.9580    -0.9130    -0.7040 h1         1 1PU       0.020700
     32 H121         3.1210    -1.8030     2.0510 hc         1 1PU       0.024200
     33 H122         4.1980    -0.4630     1.5800 hc         1 1PU       0.024200
     34 H14         -3.7460    -0.7520    -0.5260 ha         1 1PU       0.109000
     35 H16         -0.1850     3.9940     2.7560 hn         1 1PU       0.162500
     36 H19         -0.7570     5.8750     4.1600 ha         1 1PU       0.113000
     37 H21         -2.3890     6.8780     5.7460 ha         1 1PU       0.107000
     38 H22         -4.9140     3.4860     5.1210 h4         1 1PU      -0.017900
     39 H23         -4.4970     5.6460     6.2250 ha         1 1PU       0.115000
@<TRIPOS>BOND
     1     1     2 1   
     2     1     3 ar  
     3     1     6 ar  
     4     2     5 1   
     5     2     7 1   
     6     2    24 1   
     7     3     4 1   
     8     3     8 ar  
     9     4     7 1   
    10     4    13 2   
    11     5    12 1   
    12     5    25 1   
    13     5    26 1   
    14     6     9 ar  
    15     6    10 1   
    16     7    11 1   
    17     8    14 ar  
    18     8    27 1   
    19     9    14 ar  
    20     9    28 1   
    21    10    15 1   
    22    10    29 1   
    23    11    12 1   
    24    11    30 1   
    25    11    31 1   
    26    12    32 1   
    27    12    33 1   
    28    14    34 1   
    29    15    16 1   
    30    15    17 2   
    31    16    18 1   
    32    16    35 1   
    33    18    19 ar  
    34    18    20 ar  
    35    19    21 ar  
    36    19    36 1   
    37    20    22 ar  
    38    21    23 ar  
    39    21    37 1   
    40    22    23 ar  
    41    22    38 1   
    42    23    39 1   
@<TRIPOS>SUBSTRUCTURE
     1 1PU         1 TEMP              0 ****  ****    0 ROOT
