@<TRIPOS>MOLECULE
1PW
   67    66     1     0     0
SMALL
bcc


@<TRIPOS>ATOM
      1 CAA          1.5830     2.2320     2.6880 c3         1 1PW      -0.092100
      2 CAJ          2.6600     1.3140     2.1690 c3         1 1PW      -0.078400
      3 CAL          2.9570     0.1680     3.1130 c3         1 1PW      -0.079400
      4 CAN          1.8880    -0.9030     3.0760 c3         1 1PW      -0.078400
      5 CAP          2.2200    -2.0420     4.0160 c3         1 1PW      -0.080400
      6 CAR          1.1530    -3.1150     3.9800 c3         1 1PW      -0.077400
      7 CAT          1.4860    -4.2530     4.9210 c3         1 1PW      -0.080400
      8 CAU          0.4190    -5.3260     4.8840 c3         1 1PW      -0.076400
      9 CAS          0.7170    -6.4690     5.8310 c3         1 1PW      -0.079400
     10 CAQ          1.7870    -7.4000     5.3000 c3         1 1PW      -0.078400
     11 CAO          2.0460    -8.5420     6.2600 c3         1 1PW      -0.080400
     12 CAM          3.1180    -9.4710     5.7300 c3         1 1PW      -0.073400
     13 CAK          3.3950   -10.6270     6.6720 c3         1 1PW      -0.038200
     14 CAH          4.2120   -10.2250     7.8430 c2         1 1PW      -0.196200
     15 CAI          5.2590   -10.9260     8.2840 c2         1 1PW      -0.133200
     16 CAZ          6.0730   -10.5210     9.4760 c3         1 1PW       0.181300
     17 OAE          6.2980   -11.6960    10.2400 oh         1 1PW      -0.636800
     18 CBA          7.4520    -9.9530     9.0150 c3         1 1PW       0.041700
     19 NAW          7.2820    -8.7480     8.2290 ns         1 1PW      -0.522900
     20 CAY          7.8730    -8.5820     6.9960 c          1 1PW       0.648100
     21 CAB          7.8560    -7.1840     6.4140 c3         1 1PW      -0.176100
     22 OAC          8.3520    -9.5320     6.3370 o          1 1PW      -0.641100
     23 CAV          8.3900    -9.7220    10.2320 c3         1 1PW       0.174400
     24 OAX          8.1320    -8.5220    10.8850 os         1 1PW      -0.590200
     25 PBB          7.5770    -8.6190    12.4460 p5         1 1PW       1.440800
     26 OAF          6.7490    -9.8460    12.4660 o          1 1PW      -0.843500
     27 OAG          6.6470    -7.2840    12.3940 oh         1 1PW      -0.772400
     28 OAD          8.6680    -8.2570    13.3670 o          1 1PW      -0.843500
     29 H1           1.4110     3.0720     1.9720 hc         1 1PW       0.031367
     30 H2           1.8750     2.6640     3.6760 hc         1 1PW       0.031367
     31 H3           0.6210     1.6800     2.8190 hc         1 1PW       0.031367
     32 H4           2.3560     0.9060     1.1690 hc         1 1PW       0.036200
     33 H5           3.6010     1.9070     2.0120 hc         1 1PW       0.036200
     34 H6           3.0590     0.5600     4.1590 hc         1 1PW       0.040700
     35 H7           3.9430    -0.2900     2.8330 hc         1 1PW       0.040700
     36 H8           0.8970    -0.4590     3.3600 hc         1 1PW       0.037200
     37 H9           1.7860    -1.2970     2.0300 hc         1 1PW       0.037200
     38 H10          3.2100    -2.4870     3.7330 hc         1 1PW       0.041700
     39 H11          2.3220    -1.6490     5.0620 hc         1 1PW       0.041700
     40 H12          0.1630    -2.6700     4.2630 hc         1 1PW       0.036200
     41 H13          1.0510    -3.5090     2.9350 hc         1 1PW       0.036200
     42 H14          1.5880    -3.8590     5.9670 hc         1 1PW       0.043700
     43 H15          2.4780    -4.6960     4.6380 hc         1 1PW       0.043700
     44 H16          0.3200    -5.7190     3.8380 hc         1 1PW       0.033700
     45 H17         -0.5680    -4.8700     5.1620 hc         1 1PW       0.033700
     46 H18         -0.2250    -7.0560     6.0020 hc         1 1PW       0.040200
     47 H19          1.0370    -6.0620     6.8270 hc         1 1PW       0.040200
     48 H20          2.7380    -6.8280     5.1350 hc         1 1PW       0.036700
     49 H21          1.4700    -7.8090     4.3050 hc         1 1PW       0.036700
     50 H22          2.3620    -8.1320     7.2560 hc         1 1PW       0.041700
     51 H23          1.0970    -9.1160     6.4250 hc         1 1PW       0.041700
     52 H24          4.0640    -8.8940     5.5580 hc         1 1PW       0.037200
     53 H25          2.7910    -9.8800     4.7370 hc         1 1PW       0.037200
     54 H26          2.4210   -11.0530     7.0380 hc         1 1PW       0.037700
     55 H27          3.9150   -11.4420     6.0990 hc         1 1PW       0.037700
     56 H28          3.8960    -9.2970     8.3450 ha         1 1PW       0.120000
     57 H29          5.5880   -11.8600     7.8010 ha         1 1PW       0.125000
     58 H30          5.5270    -9.7530    10.0910 h1         1 1PW       0.067700
     59 H31          6.3210   -11.4240    11.1740 ho         1 1PW       0.465000
     60 H32          7.9360   -10.7450     8.3700 h1         1 1PW       0.078700
     61 H33          7.1040    -6.5240    12.7370 ho         1 1PW       0.429000
     62 H34          8.3090    -7.2120     5.3940 hc         1 1PW       0.055700
     63 H35          8.4500    -6.4910     7.0580 hc         1 1PW       0.055700
     64 H36          6.8100    -6.8030     6.3380 hc         1 1PW       0.055700
     65 H37          8.2860   -10.5950    10.9340 h1         1 1PW       0.035200
     66 H38          9.4480    -9.6800     9.8410 h1         1 1PW       0.035200
     67 HAW2         7.1230    -7.9310     8.7790 hn         1 1PW       0.319500
@<TRIPOS>BOND
     1     1     2 1   
     2     1    29 1   
     3     1    30 1   
     4     1    31 1   
     5     2     3 1   
     6     2    32 1   
     7     2    33 1   
     8     3     4 1   
     9     3    34 1   
    10     3    35 1   
    11     4     5 1   
    12     4    36 1   
    13     4    37 1   
    14     5     6 1   
    15     5    38 1   
    16     5    39 1   
    17     6     7 1   
    18     6    40 1   
    19     6    41 1   
    20     7     8 1   
    21     7    42 1   
    22     7    43 1   
    23     8     9 1   
    24     8    44 1   
    25     8    45 1   
    26     9    10 1   
    27     9    46 1   
    28     9    47 1   
    29    10    11 1   
    30    10    48 1   
    31    10    49 1   
    32    11    12 1   
    33    11    50 1   
    34    11    51 1   
    35    12    13 1   
    36    12    52 1   
    37    12    53 1   
    38    13    14 1   
    39    13    54 1   
    40    13    55 1   
    41    14    15 2   
    42    14    56 1   
    43    15    16 1   
    44    15    57 1   
    45    16    17 1   
    46    16    18 1   
    47    16    58 1   
    48    17    59 1   
    49    18    19 1   
    50    18    23 1   
    51    18    60 1   
    52    19    20 1   
    53    19    67 1   
    54    20    21 1   
    55    20    22 2   
    56    21    62 1   
    57    21    63 1   
    58    21    64 1   
    59    23    24 1   
    60    23    65 1   
    61    23    66 1   
    62    24    25 1   
    63    25    26 1   
    64    25    27 1   
    65    25    28 1   
    66    27    61 1   
@<TRIPOS>SUBSTRUCTURE
     1 1PW         1 TEMP              0 ****  ****    0 ROOT
