@<TRIPOS>MOLECULE
1PW
   66    67     1     0     0
SMALL
bcc


@<TRIPOS>ATOM
      1 CAA          0.0000     0.0000     0.0000 c3         1 1PW      -0.112000
      2 CAJ          1.5300     0.0000     0.0000 c3         1 1PW      -0.108000
      3 CAL          2.0400     0.0000     1.4430 c3         1 1PW      -0.109000
      4 CAN          3.5690     0.0010     1.4430 c3         1 1PW      -0.109000
      5 CAP          4.0790     0.0010     2.8850 c3         1 1PW      -0.108000
      6 CAR          5.6100     0.0010     2.8850 c3         1 1PW      -0.108000
      7 CAT          6.1200     0.0010     4.3280 c3         1 1PW      -0.108000
      8 CAU          7.6500     0.0020     4.3280 c3         1 1PW      -0.109000
      9 CAS          8.1600     0.0020     5.7710 c3         1 1PW      -0.109000
     10 CAQ          9.6890     0.0030     5.7700 c3         1 1PW      -0.109000
     11 CAO         10.2000     0.0020     7.2130 c3         1 1PW      -0.113000
     12 CAM         11.7300     0.0030     7.2130 c3         1 1PW      -0.138000
     13 CAK         12.2400     0.0030     8.6560 DU         1 1PW       0.000000
     14 CAH         13.7460     0.0030     8.6560 c2         1 1PW      -0.133000
     15 CAI         14.4010     0.9330     9.3070 c2         1 1PW      -0.267000
     16 CAZ         15.9080     0.9330     9.3060 DU         1 1PW       0.173000
     17 OAE         16.3850    -0.0980     8.4400 oh         1 1PW      -0.288000
     18 CBA         16.4180     2.2900     8.8140 c3         1 1PW      -0.114000
     19 NAW         15.9290     3.3470     9.7020 ns         1 1PW       0.086000
     20 CAY         16.2540     3.3330    11.0090 c2         1 1PW       0.213000
     21 CAB         15.7510     4.4200    11.9230 c3         1 1PW      -0.143000
     22 OAC         16.9520     2.4450    11.4510 o          1 1PW      -0.438000
     23 CAV         17.9480     2.2900     8.8140 c3         1 1PW       0.098000
     24 OAX         18.4230     3.5110     8.2450 os         1 1PW      -0.649000
     25 PBB         19.9880     3.8530     8.0860 p5         1 1PW       0.945500
     26 OAF         20.6600     3.9830     9.5440 o          1 1PW      -0.700833
     27 OAG         20.6560     2.7710     7.3300 o          1 1PW      -0.700833
     28 OAD         20.1560     5.2440     7.2920 o          1 1PW      -0.700833
     29 H1          -0.3610    -0.8850     0.5110 hc         1 1PW       0.037333
     30 H2          -0.3610     0.0000    -1.0210 hc         1 1PW       0.037333
     31 H3          -0.3610     0.8840     0.5110 hc         1 1PW       0.037333
     32 H4           1.8910    -0.8850    -0.5110 hc         1 1PW       0.051500
     33 H5           1.8910     0.8850    -0.5110 hc         1 1PW       0.051500
     34 H6           1.6800    -0.8850     1.9530 hc         1 1PW       0.052500
     35 H7           1.6790     0.8840     1.9540 hc         1 1PW       0.052500
     36 H8           3.9300     0.8850     0.9320 hc         1 1PW       0.054000
     37 H9           3.9310    -0.8840     0.9320 hc         1 1PW       0.054000
     38 H10          3.7180     0.8850     3.3960 hc         1 1PW       0.052500
     39 H11          3.7180    -0.8840     3.3960 hc         1 1PW       0.052500
     40 H12          5.9710    -0.8840     2.3750 hc         1 1PW       0.054000
     41 H13          5.9710     0.8850     2.3750 hc         1 1PW       0.054000
     42 H14          5.7600    -0.8840     4.8390 hc         1 1PW       0.051500
     43 H15          5.7580     0.8850     4.8390 hc         1 1PW       0.051500
     44 H16          8.0100     0.8870     3.8170 hc         1 1PW       0.054500
     45 H17          8.0120    -0.8820     3.8170 hc         1 1PW       0.054500
     46 H18          7.7990     0.8860     6.2810 hc         1 1PW       0.050000
     47 H19          7.7990    -0.8830     6.2810 hc         1 1PW       0.050000
     48 H20         10.0500     0.8880     5.2600 hc         1 1PW       0.055500
     49 H21         10.0510    -0.8810     5.2590 hc         1 1PW       0.055500
     50 H22          9.8380     0.8860     7.7240 hc         1 1PW       0.045000
     51 H23          9.8390    -0.8830     7.7230 hc         1 1PW       0.045000
     52 H24         12.0910    -0.8810     6.7020 hc         1 1PW       0.062500
     53 H25         12.0900     0.8880     6.7030 hc         1 1PW       0.062500
     54 H26         11.8780     0.8870     9.1670 ha         1 1PW       0.031500
     55 H27         11.8790    -0.8820     9.1670 ha         1 1PW       0.031500
     56 H28         13.1350    -0.3480     9.4780 DU         1 1PW      -0.018000
     57 H29         15.0130     0.2810     9.9180 DU         1 1PW       0.026000
     58 H30         16.2690     0.7550    10.3120 ha         1 1PW       0.063000
     59 H31         16.6960    -0.8230     8.9560 ho         1 1PW       0.172000
     60 H32         16.0560     2.4680     7.8080 h1         1 1PW       0.084000
     61 H33         15.3620     4.0850     9.3360 hn         1 1PW       0.063000
     62 H34         16.1850     5.3680    11.6290 hc         1 1PW       0.047000
     63 H35         14.6720     4.4800    11.8530 hc         1 1PW       0.047000
     64 H36         16.0350     4.1940    12.9440 hc         1 1PW       0.047000
     65 H37         18.3090     2.2010     9.8310 h1         1 1PW       0.042500
     66 H38         18.3090     1.4540     8.2270 h1         1 1PW       0.042500
@<TRIPOS>BOND
     1     1     2 1   
     2     1    29 1   
     3     1    30 1   
     4     1    31 1   
     5     2     3 1   
     6     2    32 1   
     7     2    33 1   
     8     3     4 1   
     9     3    34 1   
    10     3    35 1   
    11     4     5 1   
    12     4    36 1   
    13     4    37 1   
    14     5     6 1   
    15     5    38 1   
    16     5    39 1   
    17     6     7 1   
    18     6    40 1   
    19     6    41 1   
    20     7     8 1   
    21     7    42 1   
    22     7    43 1   
    23     8     9 1   
    24     8    44 1   
    25     8    45 1   
    26     9    10 1   
    27     9    46 1   
    28     9    47 1   
    29    10    11 1   
    30    10    48 1   
    31    10    49 1   
    32    11    12 1   
    33    11    50 1   
    34    11    51 1   
    35    12    13 1   
    36    12    52 1   
    37    12    53 1   
    38    13    14 1   
    39    13    54 1   
    40    13    55 1   
    41    13    56 1   
    42    14    15 1   
    43    14    56 1   
    44    15    16 1   
    45    15    57 1   
    46    16    17 1   
    47    16    18 1   
    48    16    57 1   
    49    16    58 1   
    50    17    59 1   
    51    18    19 1   
    52    18    23 1   
    53    18    60 1   
    54    19    20 1   
    55    19    61 1   
    56    20    21 1   
    57    20    22 1   
    58    21    62 1   
    59    21    63 1   
    60    21    64 1   
    61    23    24 1   
    62    23    65 1   
    63    23    66 1   
    64    24    25 1   
    65    25    26 1   
    66    25    27 1   
    67    25    28 1   
@<TRIPOS>SUBSTRUCTURE
     1 1PW         1 TEMP              0 ****  ****    0 ROOT
