@<TRIPOS>MOLECULE
molecule
   66    65     1     0     0
SMALL
bcc


@<TRIPOS>ATOM
      1 CAA          0.0000     0.0000     0.0000 c3         1 1PW      -0.092100
      2 CAJ          1.5300     0.0000     0.0000 c3         1 1PW      -0.084400
      3 CAL          2.0400     0.0000     1.4430 c3         1 1PW      -0.081400
      4 CAN          3.5690     0.0010     1.4430 c3         1 1PW      -0.082400
      5 CAP          4.0790     0.0010     2.8850 c3         1 1PW      -0.082400
      6 CAR          5.6100     0.0010     2.8850 c3         1 1PW      -0.082400
      7 CAT          6.1200     0.0010     4.3280 c3         1 1PW      -0.082400
      8 CAU          7.6500     0.0020     4.3280 c3         1 1PW      -0.082400
      9 CAS          8.1600     0.0020     5.7710 c3         1 1PW      -0.082400
     10 CAQ          9.6890     0.0030     5.7700 c3         1 1PW      -0.082400
     11 CAO         10.2000     0.0020     7.2130 c3         1 1PW      -0.084400
     12 CAM         11.7300     0.0030     7.2130 c3         1 1PW      -0.077400
     13 CAK         12.2400     0.0030     8.6560 c3         1 1PW      -0.041200
     14 CAH         13.7460     0.0030     8.6560 c2         1 1PW      -0.213200
     15 CAI         14.4010     0.9330     9.3070 c2         1 1PW      -0.163200
     16 CAZ         15.9080     0.9330     9.3060 c3         1 1PW       0.148300
     17 OAE         16.3850    -0.0980     8.4400 oh         1 1PW      -0.597800
     18 CBA         16.4180     2.2900     8.8140 c3         1 1PW       0.109700
     19 NAW         15.9290     3.3470     9.7020 ns         1 1PW      -0.552900
     20 CAY         16.2540     3.3330    11.0090 c          1 1PW       0.665100
     21 CAB         15.7510     4.4200    11.9230 c3         1 1PW      -0.173100
     22 OAC         16.9520     2.4450    11.4510 o          1 1PW      -0.619100
     23 CAV         17.9480     2.2900     8.8140 c3         1 1PW       0.201400
     24 OAX         18.4230     3.5110     8.2450 os         1 1PW      -0.582200
     25 PBB         19.9880     3.8530     8.0860 p5         1 1PW       1.180900
     26 OAF         20.6600     3.9830     9.5440 o          1 1PW      -0.910500
     27 OAG         20.6560     2.7710     7.3300 o          1 1PW      -0.910500
     28 OAD         20.1560     5.2440     7.2920 o          1 1PW      -0.910500
     29 H1          -0.3610     0.8880     0.5050 hc         1 1PW       0.030367
     30 H2          -0.3610    -0.8810     0.5170 hc         1 1PW       0.030367
     31 H3          -0.3610    -0.0070    -1.0210 hc         1 1PW       0.030367
     32 H4           1.8910     0.8850    -0.5110 hc         1 1PW       0.040200
     33 H5           1.8910    -0.8850    -0.5110 hc         1 1PW       0.040200
     34 H6           1.6790     0.8840     1.9540 hc         1 1PW       0.039700
     35 H7           1.6800    -0.8850     1.9530 hc         1 1PW       0.039700
     36 H8           3.9310    -0.8840     0.9320 hc         1 1PW       0.041200
     37 H9           3.9300     0.8850     0.9320 hc         1 1PW       0.041200
     38 H10          3.7180    -0.8840     3.3960 hc         1 1PW       0.039200
     39 H11          3.7180     0.8850     3.3960 hc         1 1PW       0.039200
     40 H12          5.9710     0.8850     2.3750 hc         1 1PW       0.041700
     41 H13          5.9710    -0.8840     2.3750 hc         1 1PW       0.041700
     42 H14          5.7580     0.8850     4.8390 hc         1 1PW       0.038700
     43 H15          5.7600    -0.8840     4.8390 hc         1 1PW       0.038700
     44 H16          8.0120    -0.8820     3.8170 hc         1 1PW       0.042200
     45 H17          8.0100     0.8870     3.8170 hc         1 1PW       0.042200
     46 H18          7.7990     0.8860     6.2810 hc         1 1PW       0.037200
     47 H19          7.7990    -0.8830     6.2810 hc         1 1PW       0.037200
     48 H20         10.0510    -0.8810     5.2590 hc         1 1PW       0.043700
     49 H21         10.0500     0.8880     5.2600 hc         1 1PW       0.043700
     50 H22          9.8380     0.8860     7.7240 hc         1 1PW       0.034700
     51 H23          9.8390    -0.8830     7.7230 hc         1 1PW       0.034700
     52 H24         12.0900     0.8880     6.7030 hc         1 1PW       0.048200
     53 H25         12.0910    -0.8810     6.7020 hc         1 1PW       0.048200
     54 H26         11.8790    -0.8820     9.1670 hc         1 1PW       0.031200
     55 H27         11.8780     0.8870     9.1670 hc         1 1PW       0.031200
     56 H28         14.2880    -0.7650     8.1180 ha         1 1PW       0.142000
     57 H29         13.8590     1.7010     9.8450 ha         1 1PW       0.116000
     58 H30         16.2690     0.7550    10.3120 h1         1 1PW       0.077700
     59 H31         16.7640    -0.7900     8.9550 ho         1 1PW       0.394000
     60 H32         16.0560     2.4680     7.8080 h1         1 1PW       0.067700
     61 H33         15.3650     4.0880     9.3350 hn         1 1PW       0.301500
     62 H34         16.2420     4.3390    12.8850 hc         1 1PW       0.046033
     63 H35         14.6810     4.3160    12.0540 hc         1 1PW       0.046033
     64 H36         15.9690     5.3880    11.4870 hc         1 1PW       0.046033
     65 H37         18.3090     2.2010     9.8310 h1         1 1PW       0.039200
     66 H38         18.3090     1.4540     8.2270 h1         1 1PW       0.039200
@<TRIPOS>BOND
     1    27    25 1   
     2    25    26 1   
     3    25    28 1   
     4    25    24 1   
     5    23    24 1   
     6    23    18 1   
     7    17    16 1   
     8    18    16 1   
     9    18    19 1   
    10    16    15 1   
    11    22    20 2   
    12    19    20 1   
    13    20    21 1   
    14    15    14 2   
    15    14    13 1   
    16    13    12 1   
    17    12    11 1   
    18    11    10 1   
    19    10     9 1   
    20     9     8 1   
    21     8     7 1   
    22     7     6 1   
    23     6     5 1   
    24     5     4 1   
    25     4     3 1   
    26     3     2 1   
    27     2     1 1   
    28     1    29 1   
    29     1    30 1   
    30     1    31 1   
    31     2    32 1   
    32     2    33 1   
    33     3    34 1   
    34     3    35 1   
    35     4    36 1   
    36     4    37 1   
    37     5    38 1   
    38     5    39 1   
    39     6    40 1   
    40     6    41 1   
    41     7    42 1   
    42     7    43 1   
    43     8    44 1   
    44     8    45 1   
    45     9    46 1   
    46     9    47 1   
    47    10    48 1   
    48    10    49 1   
    49    11    50 1   
    50    11    51 1   
    51    12    52 1   
    52    12    53 1   
    53    13    54 1   
    54    13    55 1   
    55    14    56 1   
    56    15    57 1   
    57    16    58 1   
    58    17    59 1   
    59    18    60 1   
    60    19    61 1   
    61    21    62 1   
    62    21    63 1   
    63    21    64 1   
    64    23    65 1   
    65    23    66 1   
@<TRIPOS>SUBSTRUCTURE
     1 1PW         1 TEMP              0 ****  ****    0 ROOT
