@<TRIPOS>MOLECULE
molecule
  108   107     1     0     0
SMALL
bcc


@<TRIPOS>ATOM
      1 CAB          0.0000     0.0000     0.0000 c3         1 1PX      -0.092100
      2 CAK          1.5300     0.0000     0.0000 c3         1 1PX      -0.084400
      3 CAN          2.0390     0.0000     1.4430 c3         1 1PX      -0.081400
      4 CAQ          3.5700    -0.0010     1.4430 c3         1 1PX      -0.082400
      5 CAT          4.0790     0.0000     2.8860 c3         1 1PX      -0.082400
      6 CAW          5.6100    -0.0010     2.8860 c3         1 1PX      -0.082400
      7 CAZ          6.1180    -0.0010     4.3290 c3         1 1PX      -0.082400
      8 CBB          7.6490    -0.0020     4.3290 c3         1 1PX      -0.082400
      9 CBC          8.1580    -0.0010     5.7730 c3         1 1PX      -0.082400
     10 CBD          9.6880    -0.0020     5.7720 c3         1 1PX      -0.082400
     11 CBE         10.1980    -0.0010     7.2160 c3         1 1PX      -0.082400
     12 CBF         11.7280    -0.0030     7.2160 c3         1 1PX      -0.080400
     13 CBG         12.2370    -0.0020     8.6590 c3         1 1PX      -0.086400
     14 CBH         13.7670    -0.0040     8.6590 c3         1 1PX      -0.064400
     15 CBI         14.2770    -0.0020    10.1010 c3         1 1PX      -0.160400
     16 CBM         15.7840    -0.0040    10.1020 c          1 1PX       0.662100
     17 OAC         16.3900    -0.0050     9.0520 o          1 1PX      -0.637100
     18 NBK         16.4570    -0.0030    11.2700 ns         1 1PX      -0.547900
     19 CBO         17.9220    -0.0040    11.2700 c3         1 1PX       0.107700
     20 CBJ         18.4330     1.4330    11.1430 c3         1 1PX       0.202400
     21 OBL         18.0430     2.1800    12.2970 os         1 1PX      -0.595200
     22 PBP         18.4120     3.7340    12.5010 p5         1 1PX       1.176900
     23 OAF         17.7040     4.2830    13.8380 o          1 1PX      -0.908500
     24 OAG         20.0080     3.8930    12.6340 o          1 1PX      -0.908500
     25 OAD         17.9340     4.5120    11.3350 o          1 1PX      -0.908500
     26 CBN         18.4310    -0.6130    12.5780 c3         1 1PX       0.172300
     27 OAE         19.8590    -0.6600    12.5580 oh         1 1PX      -0.602800
     28 CAI         17.8850    -2.0100    12.7290 c2         1 1PX      -0.171200
     29 CAH         18.7030    -3.0160    12.9140 c2         1 1PX      -0.213200
     30 CAL         18.1570    -4.4130    13.0650 c3         1 1PX      -0.041200
     31 CAO         18.8170    -5.3310    12.0340 c3         1 1PX      -0.077400
     32 CAR         18.2620    -6.7490    12.1860 c3         1 1PX      -0.084400
     33 CAU         18.9220    -7.6680    11.1570 c3         1 1PX      -0.082400
     34 CAX         18.3670    -9.0870    11.3090 c3         1 1PX      -0.082400
     35 CBA         19.0280   -10.0050    10.2790 c3         1 1PX      -0.082400
     36 CAY         18.4730   -11.4240    10.4310 c3         1 1PX      -0.082400
     37 CAV         19.1340   -12.3420     9.4010 c3         1 1PX      -0.082400
     38 CAS         18.5790   -13.7600     9.5530 c3         1 1PX      -0.082400
     39 CAP         19.2390   -14.6800     8.5240 c3         1 1PX      -0.082400
     40 CAM         18.6850   -16.0970     8.6750 c3         1 1PX      -0.081400
     41 CAJ         19.3450   -17.0160     7.6460 c3         1 1PX      -0.084400
     42 CAA         18.7910   -18.4340     7.7980 c3         1 1PX      -0.092100
     43 H1          -0.3610    -0.8850     0.5100 hc         1 1PX       0.030700
     44 H2          -0.3610     0.0000    -1.0210 hc         1 1PX       0.030700
     45 H3          -0.3610     0.8840     0.5110 hc         1 1PX       0.030700
     46 H4           1.8920    -0.8850    -0.5110 hc         1 1PX       0.039200
     47 H5           1.8920     0.8850    -0.5110 hc         1 1PX       0.039200
     48 H6           1.6770    -0.8840     1.9540 hc         1 1PX       0.040200
     49 H7           1.6790     0.8850     1.9530 hc         1 1PX       0.040200
     50 H8           3.9310    -0.8870     0.9340 hc         1 1PX       0.040700
     51 H9           3.9320     0.8820     0.9320 hc         1 1PX       0.040700
     52 H10          3.7170    -0.8840     3.3980 hc         1 1PX       0.040200
     53 H11          3.7180     0.8860     3.3960 hc         1 1PX       0.040200
     54 H12          5.9700    -0.8870     2.3770 hc         1 1PX       0.040700
     55 H13          5.9720     0.8830     2.3750 hc         1 1PX       0.040700
     56 H14          5.7560    -0.8850     4.8400 hc         1 1PX       0.040200
     57 H15          5.7570     0.8840     4.8390 hc         1 1PX       0.040200
     58 H16          8.0090    -0.8870     3.8190 hc         1 1PX       0.040700
     59 H17          8.0110     0.8820     3.8180 hc         1 1PX       0.040700
     60 H18          7.7970     0.8840     6.2830 hc         1 1PX       0.039200
     61 H19          7.7970    -0.8850     6.2840 hc         1 1PX       0.039200
     62 H20         10.0500     0.8820     5.2610 hc         1 1PX       0.040700
     63 H21         10.0490    -0.8870     5.2630 hc         1 1PX       0.040700
     64 H22          9.8370     0.8840     7.7260 hc         1 1PX       0.038200
     65 H23          9.8360    -0.8850     7.7270 hc         1 1PX       0.038200
     66 H24         12.0900     0.8810     6.7050 hc         1 1PX       0.042200
     67 H25         12.0890    -0.8880     6.7060 hc         1 1PX       0.042200
     68 H26         11.8750    -0.8860     9.1700 hc         1 1PX       0.035200
     69 H27         11.8760     0.8830     9.1690 hc         1 1PX       0.035200
     70 H28         14.1290     0.8800     8.1470 hc         1 1PX       0.057200
     71 H29         14.1280    -0.8890     8.1500 hc         1 1PX       0.057200
     72 H30         13.9140    -0.8850    10.6130 hc         1 1PX       0.053700
     73 H31         13.9160     0.8840    10.6110 hc         1 1PX       0.053700
     74 H32         15.9570     0.0540    12.1350 hn         1 1PX       0.313500
     75 H33         18.2830    -0.5910    10.4340 h1         1 1PX       0.059700
     76 H34         18.0100     1.8890    10.2570 h1         1 1PX       0.036700
     77 H35         19.5140     1.4260    11.0660 h1         1 1PX       0.036700
     78 H38         18.1010    -0.0050    13.4120 h1         1 1PX       0.092700
     79 H39         20.1940    -0.3740    13.3920 ho         1 1PX       0.412000
     80 H40         16.8160    -2.1820    12.6830 ha         1 1PX       0.113000
     81 H41         19.7720    -2.8440    12.9600 ha         1 1PX       0.143000
     82 H42         17.0860    -4.4010    12.9050 hc         1 1PX       0.032200
     83 H43         18.3690    -4.7780    14.0620 hc         1 1PX       0.032200
     84 H44         18.6050    -4.9650    11.0370 hc         1 1PX       0.046700
     85 H45         19.8880    -5.3430    12.1950 hc         1 1PX       0.046700
     86 H46         17.1910    -6.7370    12.0250 hc         1 1PX       0.035200
     87 H47         18.4730    -7.1150    13.1840 hc         1 1PX       0.035200
     88 H48         18.7110    -7.3030    10.1590 hc         1 1PX       0.042200
     89 H49         19.9930    -7.6800    11.3180 hc         1 1PX       0.042200
     90 H50         18.5780    -9.4520    12.3070 hc         1 1PX       0.038200
     91 H51         17.2960    -9.0750    11.1480 hc         1 1PX       0.038200
     92 H52         18.8170    -9.6400     9.2810 hc         1 1PX       0.041200
     93 H53         20.0990   -10.0170    10.4400 hc         1 1PX       0.041200
     94 H54         18.6840   -11.7890    11.4290 hc         1 1PX       0.039200
     95 H55         17.4020   -11.4120    10.2700 hc         1 1PX       0.039200
     96 H56         20.2050   -12.3540     9.5620 hc         1 1PX       0.041200
     97 H57         18.9220   -11.9770     8.4030 hc         1 1PX       0.041200
     98 H58         18.7910   -14.1250    10.5510 hc         1 1PX       0.039700
     99 H59         17.5080   -13.7480     9.3930 hc         1 1PX       0.039700
    100 H60         19.0280   -14.3140     7.5260 hc         1 1PX       0.040700
    101 H61         20.3100   -14.6920     8.6840 hc         1 1PX       0.040700
    102 H62         17.6140   -16.0850     8.5140 hc         1 1PX       0.040200
    103 H63         18.8960   -16.4620     9.6730 hc         1 1PX       0.040200
    104 H64         20.4170   -17.0280     7.8070 hc         1 1PX       0.039700
    105 H65         19.1340   -16.6510     6.6480 hc         1 1PX       0.039700
    106 H66         19.0010   -18.7990     8.7960 hc         1 1PX       0.030367
    107 H67         19.2580   -19.0850     7.0690 hc         1 1PX       0.030367
    108 H68         17.7190   -18.4220     7.6370 hc         1 1PX       0.030367
@<TRIPOS>BOND
     1    36    35 1   
     2    36    37 1   
     3    35    34 1   
     4    38    37 1   
     5    38    39 1   
     6    42    41 1   
     7    41    40 1   
     8     2     1 1   
     9     2     3 1   
    10    34    33 1   
    11    40    39 1   
    12    33    32 1   
    13     4     3 1   
    14     4     5 1   
    15    17    16 2   
    16    31    32 1   
    17    31    30 1   
    18     6     5 1   
    19     6     7 1   
    20    10     9 1   
    21    10    11 1   
    22    12    11 1   
    23    12    13 1   
    24    16    15 1   
    25    16    18 1   
    26     9     8 1   
    27    14    15 1   
    28    14    13 1   
    29    28    26 1   
    30    28    29 2   
    31    30    29 1   
    32     8     7 1   
    33    19    18 1   
    34    19    26 1   
    35    19    20 1   
    36    27    26 1   
    37    21    20 1   
    38    21    22 1   
    39    25    22 1   
    40    24    22 1   
    41    22    23 1   
    42     1    43 1   
    43     1    44 1   
    44     1    45 1   
    45     2    46 1   
    46     2    47 1   
    47     3    48 1   
    48     3    49 1   
    49     4    50 1   
    50     4    51 1   
    51     5    52 1   
    52     5    53 1   
    53     6    54 1   
    54     6    55 1   
    55     7    56 1   
    56     7    57 1   
    57     8    58 1   
    58     8    59 1   
    59     9    60 1   
    60     9    61 1   
    61    10    62 1   
    62    10    63 1   
    63    11    64 1   
    64    11    65 1   
    65    12    66 1   
    66    12    67 1   
    67    13    68 1   
    68    13    69 1   
    69    14    70 1   
    70    14    71 1   
    71    15    72 1   
    72    15    73 1   
    73    18    74 1   
    74    19    75 1   
    75    20    76 1   
    76    20    77 1   
    77    26    78 1   
    78    27    79 1   
    79    28    80 1   
    80    29    81 1   
    81    30    82 1   
    82    30    83 1   
    83    31    84 1   
    84    31    85 1   
    85    32    86 1   
    86    32    87 1   
    87    33    88 1   
    88    33    89 1   
    89    34    90 1   
    90    34    91 1   
    91    35    92 1   
    92    35    93 1   
    93    36    94 1   
    94    36    95 1   
    95    37    96 1   
    96    37    97 1   
    97    38    98 1   
    98    38    99 1   
    99    39   100 1   
   100    39   101 1   
   101    40   102 1   
   102    40   103 1   
   103    41   104 1   
   104    41   105 1   
   105    42   106 1   
   106    42   107 1   
   107    42   108 1   
@<TRIPOS>SUBSTRUCTURE
     1 1PX         1 TEMP              0 ****  ****    0 ROOT
