@<TRIPOS>MOLECULE
1PY
   19    19     1     0     0
SMALL
bcc


@<TRIPOS>ATOM
      1 O1         -0.0220    1.0160    0.1220 o         1 1PY     -0.811300
      2 O2          1.3180   -0.6830    0.7220 o         1 1PY     -0.811300
      3 O           2.8300    1.3700   -1.2440 o         1 1PY     -0.585100
      4 CA          1.8910    0.5680   -1.2350 c         1 1PY      0.471100
      5 CB          1.4740   -0.2370   -2.4440 c3        1 1PY     -0.168100
      6 CG          2.3360   -0.1670   -3.6500 ca        1 1PY     -0.041300
      7 CD1         2.6240   -1.3350   -4.3710 ca        1 1PY     -0.125000
      8 CE1         3.3950   -1.2800   -5.5300 ca        1 1PY     -0.141000
      9 CZ          3.8920   -0.0590   -5.9840 ca        1 1PY     -0.154000
     10 CE2         3.6190    1.1060   -5.2670 ca        1 1PY     -0.141000
     11 CD2         2.8460    1.0550   -4.1090 ca        1 1PY     -0.125000
     12 C           0.9940    0.2840   -0.0150 c         1 1PY      0.855600
     13 HB1         1.3770   -1.3030   -2.0970 hc        1 1PY      0.077700
     14 HB2         0.4410    0.1210   -2.7150 hc        1 1PY      0.077700
     15 HD1         2.2400   -2.3020   -4.0130 ha        1 1PY      0.141500
     16 HE1         3.6130   -2.2030   -6.0860 ha        1 1PY      0.114000
     17 HZ          4.5010   -0.0160   -6.8970 ha        1 1PY      0.111000
     18 HE2         4.0190    2.0700   -5.6140 ha        1 1PY      0.114000
     19 HD2         2.6530    1.9690   -3.5240 ha        1 1PY      0.141500
@<TRIPOS>BOND
     1    1   12 1   
     2    2   12 1   
     3    3    4 2   
     4    4    5 1   
     5    4   12 1   
     6    5    6 1   
     7    5   13 1   
     8    5   14 1   
     9    6    7 ar  
    10    6   11 ar  
    11    7    8 ar  
    12    7   15 1   
    13    8    9 ar  
    14    8   16 1   
    15    9   10 ar  
    16    9   17 1   
    17   10   11 ar  
    18   10   18 1   
    19   11   19 1   
@<TRIPOS>SUBSTRUCTURE
     1 1PY         1 TEMP              0 ****  ****    0 ROOT
