@<TRIPOS>MOLECULE
molecule
   19    19     1     0     0
SMALL
bcc


@<TRIPOS>ATOM
      1 O1           0.0000     0.0000     0.0000 o          1 1PY      -0.813300
      2 O2           1.8850     0.0000     1.1650 o          1 1PY      -0.813300
      3 O            3.1660    -0.0000    -1.2910 o          1 1PY      -0.535100
      4 CA           1.9580    -0.0010    -1.2920 c          1 1PY       0.472100
      5 CB           1.2050    -0.0010    -2.5960 c3         1 1PY      -0.151100
      6 CG           2.1840    -0.0010    -3.7400 ca         1 1PY      -0.041300
      7 CD1          2.6340    -1.1990    -4.2660 ca         1 1PY      -0.120000
      8 CE1          3.5310    -1.1980    -5.3170 ca         1 1PY      -0.134000
      9 CZ           3.9800    -0.0030    -5.8420 ca         1 1PY      -0.151000
     10 CE2          3.5290     1.1950    -5.3180 ca         1 1PY      -0.134000
     11 CD2          2.6280     1.1950    -4.2710 ca         1 1PY      -0.120000
     12 C            1.2130     0.0000     0.0000 c          1 1PY       0.807600
     13 HB1          0.5820     0.8830    -2.6540 hc         1 1PY       0.069700
     14 HB2          0.5820    -0.8860    -2.6540 hc         1 1PY       0.069700
     15 HD1          2.2820    -2.1370    -3.8540 ha         1 1PY       0.129000
     16 HE1          3.8840    -2.1360    -5.7280 ha         1 1PY       0.113000
     17 HZ           4.6850    -0.0030    -6.6650 ha         1 1PY       0.110000
     18 HE2          3.8790     2.1330    -5.7320 ha         1 1PY       0.113000
     19 HD2          2.2750     2.1330    -3.8600 ha         1 1PY       0.129000
@<TRIPOS>BOND
     1     1    12 1   
     2     2    12 1   
     3     3     4 2   
     4     4     5 1   
     5     4    12 1   
     6     5     6 1   
     7     5    13 1   
     8     5    14 1   
     9     6     7 ar  
    10     6    11 ar  
    11     7     8 ar  
    12     7    15 1   
    13     8     9 ar  
    14     8    16 1   
    15     9    10 ar  
    16     9    17 1   
    17    10    11 ar  
    18    10    18 1   
    19    11    19 1   
@<TRIPOS>SUBSTRUCTURE
     1 1PY         1 TEMP              0 ****  ****    0 ROOT
