@<TRIPOS>MOLECULE
1PZ
   96    97     1     0     0
SMALL
bcc


@<TRIPOS>ATOM
      1 CAS          0.0000     0.0000     0.0000 c3         1 1PZ      -0.112000
      2 CAF          1.5300     0.0000     0.0000 c3         1 1PZ      -0.108000
      3 CAG          2.0400     0.0000     1.4420 c3         1 1PZ      -0.109000
      4 CAH          3.5700     0.0010     1.4420 c3         1 1PZ      -0.108000
      5 CAI          4.0800     0.0000     2.8860 c3         1 1PZ      -0.108000
      6 CAJ          5.6100     0.0020     2.8860 c3         1 1PZ      -0.108000
      7 CAK          6.1200     0.0010     4.3280 c3         1 1PZ      -0.108000
      8 CAL          7.6490     0.0020     4.3280 c3         1 1PZ      -0.109000
      9 CAM          8.1590     0.0020     5.7710 c3         1 1PZ      -0.109000
     10 CAN          9.6890     0.0030     5.7720 c3         1 1PZ      -0.109000
     11 CAO         10.1990     0.0020     7.2140 c3         1 1PZ      -0.113000
     12 CAP         11.7290     0.0030     7.2140 c3         1 1PZ      -0.139000
     13 CAQ         12.2390     0.0030     8.6560 DU         1 1PZ      -0.001000
     14 CAE         13.7460     0.0040     8.6560 c2         1 1PZ      -0.114000
     15 CAD         14.4000     0.9340     9.3080 c2         1 1PZ      -0.269000
     16 CAC         15.9070     0.9350     9.3080 DU         1 1PZ       0.204000
     17 OAR         16.3850    -0.0970     8.4420 oh         1 1PZ      -0.297000
     18 CAB         16.4160     2.2900     8.8160 c3         1 1PZ      -0.129000
     19 CAA         17.9450     2.3100     8.8660 c3         1 1PZ       0.113000
     20 OBB         18.3820     1.9980    10.1900 os         1 1PZ      -0.662000
     21 PAX         19.9360     1.9280    10.6070 p5         1 1PZ       0.932500
     22 OAZ         20.6440     0.9830     9.7150 o          1 1PZ      -0.711833
     23 OBA         20.5940     3.3910    10.4720 o          1 1PZ      -0.711833
     24 OAY         20.0600     1.4240    12.1310 o          1 1PZ      -0.711833
     25 NAW         15.8850     3.3520     9.6740 ns         1 1PZ       0.092000
     26 CAU         15.7570     4.6050     9.1950 c2         1 1PZ       0.207000
     27 OAV         16.0790     4.8540     8.0530 o          1 1PZ      -0.454000
     28 CAT         15.2100     5.6980    10.0780 c3         1 1PZ      -0.131000
     29 CBC         15.1680     7.0120     9.2960 c3         1 1PZ      -0.092000
     30 CBD         14.6130     8.1210    10.1930 c3         1 1PZ      -0.113000
     31 CBE         14.5710     9.4350     9.4120 c3         1 1PZ      -0.107000
     32 CBF         14.0170    10.5440    10.3080 c3         1 1PZ      -0.109000
     33 CBG         13.9740    11.8580     9.5260 c3         1 1PZ      -0.108000
     34 CBH         13.4190    12.9680    10.4230 c3         1 1PZ      -0.109000
     35 CBI         13.3770    14.2820     9.6420 c3         1 1PZ      -0.109000
     36 CBJ         12.8230    15.3910    10.5380 c3         1 1PZ      -0.109000
     37 CBK         12.7800    16.7060     9.7560 c3         1 1PZ      -0.108000
     38 CBL         12.2260    17.8140    10.6530 c3         1 1PZ      -0.112000
     39 H1          -0.3610     0.8850     0.5100 hc         1 1PZ       0.037667
     40 H2          -0.3610    -0.0010    -1.0210 hc         1 1PZ       0.037667
     41 H3          -0.3610    -0.8840     0.5120 hc         1 1PZ       0.037667
     42 H4           1.8910    -0.8850    -0.5110 hc         1 1PZ       0.051500
     43 H5           1.8910     0.8850    -0.5110 hc         1 1PZ       0.051500
     44 H6           1.6780     0.8840     1.9530 hc         1 1PZ       0.053500
     45 H7           1.6790    -0.8850     1.9520 hc         1 1PZ       0.053500
     46 H8           3.9320    -0.8820     0.9310 hc         1 1PZ       0.053500
     47 H9           3.9300     0.8870     0.9330 hc         1 1PZ       0.053500
     48 H10          3.7190    -0.8850     3.3950 hc         1 1PZ       0.052500
     49 H11          3.7180     0.8840     3.3970 hc         1 1PZ       0.052500
     50 H12          5.9700     0.8870     2.3760 hc         1 1PZ       0.054000
     51 H13          5.9720    -0.8820     2.3740 hc         1 1PZ       0.054000
     52 H14          5.7590    -0.8840     4.8380 hc         1 1PZ       0.052000
     53 H15          5.7580     0.8850     4.8400 hc         1 1PZ       0.052000
     54 H16          8.0100     0.8870     3.8180 hc         1 1PZ       0.054500
     55 H17          8.0110    -0.8820     3.8170 hc         1 1PZ       0.054500
     56 H18          7.7970     0.8860     6.2820 hc         1 1PZ       0.050500
     57 H19          7.7980    -0.8840     6.2810 hc         1 1PZ       0.050500
     58 H20         10.0490     0.8880     5.2620 hc         1 1PZ       0.055000
     59 H21         10.0510    -0.8810     5.2600 hc         1 1PZ       0.055000
     60 H22          9.8370     0.8860     7.7250 hc         1 1PZ       0.046000
     61 H23          9.8390    -0.8830     7.7240 hc         1 1PZ       0.046000
     62 H24         12.0890     0.8890     6.7040 hc         1 1PZ       0.062500
     63 H25         12.0910    -0.8800     6.7030 hc         1 1PZ       0.062500
     64 H26         11.8790    -0.8830     9.1660 ha         1 1PZ       0.035000
     65 H27         11.8780     0.8860     9.1680 ha         1 1PZ       0.035000
     66 H28         13.1350    -0.3490     9.4780 DU         1 1PZ      -0.016000
     67 H30         15.0120     0.2820     9.9200 DU         1 1PZ       0.037000
     68 H32         16.2680     0.7570    10.3140 ha         1 1PZ       0.070000
     69 H33         16.7100    -0.8160     8.9580 ho         1 1PZ       0.192000
     70 H34         16.0860     2.4510     7.7960 h1         1 1PZ       0.086000
     71 H35         18.3390     1.5760     8.1730 h1         1 1PZ       0.033000
     72 H36         18.3030     3.2950     8.5910 h1         1 1PZ       0.033000
     73 H39         15.6400     3.1520    10.6240 hn         1 1PZ       0.075000
     74 H40         15.8480     5.8140    10.9460 hc         1 1PZ       0.060000
     75 H41         14.2090     5.4360    10.3980 hc         1 1PZ       0.060000
     76 H42         14.5290     6.8960     8.4290 hc         1 1PZ       0.068500
     77 H43         16.1690     7.2740     8.9760 hc         1 1PZ       0.068500
     78 H44         15.2510     8.2370    11.0610 hc         1 1PZ       0.048000
     79 H45         13.6120     7.8590    10.5140 hc         1 1PZ       0.048000
     80 H46         13.9320     9.3190     8.5440 hc         1 1PZ       0.055000
     81 H47         15.5720     9.6970     9.0910 hc         1 1PZ       0.055000
     82 H48         14.6550    10.6600    11.1750 hc         1 1PZ       0.051500
     83 H49         13.0150    10.2820    10.6290 hc         1 1PZ       0.051500
     84 H50         14.9750    12.1200     9.2060 hc         1 1PZ       0.053500
     85 H51         13.3360    11.7420     8.6590 hc         1 1PZ       0.053500
     86 H52         14.0570    13.0840    11.2910 hc         1 1PZ       0.052000
     87 H53         12.4180    12.7060    10.7440 hc         1 1PZ       0.052000
     88 H54         14.3780    14.5440     9.3210 hc         1 1PZ       0.053500
     89 H55         12.7380    14.1660     8.7740 hc         1 1PZ       0.053500
     90 H56         11.8220    15.1290    10.8590 hc         1 1PZ       0.053000
     91 H57         13.4610    15.5070    11.4050 hc         1 1PZ       0.053000
     92 H58         12.1420    16.5900     8.8880 hc         1 1PZ       0.051000
     93 H59         13.7810    16.9670     9.4350 hc         1 1PZ       0.051000
     94 H60         11.2250    17.5510    10.9750 hc         1 1PZ       0.036333
     95 H61         12.8650    17.9310    11.5200 hc         1 1PZ       0.036333
     96 H62         12.1940    18.7450    10.1000 hc         1 1PZ       0.036333
@<TRIPOS>BOND
     1     1     2 1   
     2     1    39 1   
     3     1    40 1   
     4     1    41 1   
     5     2     3 1   
     6     2    42 1   
     7     2    43 1   
     8     3     4 1   
     9     3    44 1   
    10     3    45 1   
    11     4     5 1   
    12     4    46 1   
    13     4    47 1   
    14     5     6 1   
    15     5    48 1   
    16     5    49 1   
    17     6     7 1   
    18     6    50 1   
    19     6    51 1   
    20     7     8 1   
    21     7    52 1   
    22     7    53 1   
    23     8     9 1   
    24     8    54 1   
    25     8    55 1   
    26     9    10 1   
    27     9    56 1   
    28     9    57 1   
    29    10    11 1   
    30    10    58 1   
    31    10    59 1   
    32    11    12 1   
    33    11    60 1   
    34    11    61 1   
    35    12    13 1   
    36    12    62 1   
    37    12    63 1   
    38    13    14 1   
    39    13    64 1   
    40    13    65 1   
    41    13    66 1   
    42    14    15 1   
    43    14    66 1   
    44    15    16 1   
    45    15    67 1   
    46    16    17 1   
    47    16    18 1   
    48    16    67 1   
    49    16    68 1   
    50    17    69 1   
    51    18    19 1   
    52    18    25 1   
    53    18    70 1   
    54    19    20 1   
    55    19    71 1   
    56    19    72 1   
    57    20    21 1   
    58    21    22 1   
    59    21    23 1   
    60    21    24 1   
    61    25    26 1   
    62    25    73 1   
    63    26    27 1   
    64    26    28 1   
    65    28    29 1   
    66    28    74 1   
    67    28    75 1   
    68    29    30 1   
    69    29    76 1   
    70    29    77 1   
    71    30    31 1   
    72    30    78 1   
    73    30    79 1   
    74    31    32 1   
    75    31    80 1   
    76    31    81 1   
    77    32    33 1   
    78    32    82 1   
    79    32    83 1   
    80    33    34 1   
    81    33    84 1   
    82    33    85 1   
    83    34    35 1   
    84    34    86 1   
    85    34    87 1   
    86    35    36 1   
    87    35    88 1   
    88    35    89 1   
    89    36    37 1   
    90    36    90 1   
    91    36    91 1   
    92    37    38 1   
    93    37    92 1   
    94    37    93 1   
    95    38    94 1   
    96    38    95 1   
    97    38    96 1   
@<TRIPOS>SUBSTRUCTURE
     1 1PZ         1 TEMP              0 ****  ****    0 ROOT
