@<TRIPOS>MOLECULE
molecule
   96    95     1     0     0
SMALL
bcc


@<TRIPOS>ATOM
      1 CAS          0.0000     0.0000     0.0000 c3         1 1PZ      -0.092100
      2 CAF          1.5300     0.0000     0.0000 c3         1 1PZ      -0.084400
      3 CAG          2.0400     0.0000     1.4420 c3         1 1PZ      -0.081400
      4 CAH          3.5700     0.0010     1.4420 c3         1 1PZ      -0.082400
      5 CAI          4.0800     0.0000     2.8860 c3         1 1PZ      -0.082400
      6 CAJ          5.6100     0.0020     2.8860 c3         1 1PZ      -0.082400
      7 CAK          6.1200     0.0010     4.3280 c3         1 1PZ      -0.082400
      8 CAL          7.6490     0.0020     4.3280 c3         1 1PZ      -0.082400
      9 CAM          8.1590     0.0020     5.7710 c3         1 1PZ      -0.082400
     10 CAN          9.6890     0.0030     5.7720 c3         1 1PZ      -0.082400
     11 CAO         10.1990     0.0020     7.2140 c3         1 1PZ      -0.083400
     12 CAP         11.7290     0.0030     7.2140 c3         1 1PZ      -0.077400
     13 CAQ         12.2390     0.0030     8.6560 c3         1 1PZ      -0.041200
     14 CAE         13.7460     0.0040     8.6560 c2         1 1PZ      -0.212200
     15 CAD         14.4000     0.9340     9.3080 c2         1 1PZ      -0.170200
     16 CAC         15.9070     0.9350     9.3080 c3         1 1PZ       0.171300
     17 OAR         16.3850    -0.0970     8.4420 oh         1 1PZ      -0.605800
     18 CAB         16.4160     2.2900     8.8160 c3         1 1PZ       0.106700
     19 CAA         17.9450     2.3100     8.8660 c3         1 1PZ       0.202400
     20 OBB         18.3820     1.9980    10.1900 os         1 1PZ      -0.595200
     21 PAX         19.9360     1.9280    10.6070 p5         1 1PZ       1.176900
     22 OAZ         20.6440     0.9830     9.7150 o          1 1PZ      -0.908500
     23 OBA         20.5940     3.3910    10.4720 o          1 1PZ      -0.908500
     24 OAY         20.0600     1.4240    12.1310 o          1 1PZ      -0.908500
     25 NAW         15.8850     3.3520     9.6740 ns         1 1PZ      -0.546900
     26 CAU         15.7570     4.6050     9.1950 c          1 1PZ       0.663100
     27 OAV         16.0790     4.8540     8.0530 o          1 1PZ      -0.638100
     28 CAT         15.2100     5.6980    10.0780 c3         1 1PZ      -0.160400
     29 CBC         15.1680     7.0120     9.2960 c3         1 1PZ      -0.064400
     30 CBD         14.6130     8.1210    10.1930 c3         1 1PZ      -0.086400
     31 CBE         14.5710     9.4350     9.4120 c3         1 1PZ      -0.080400
     32 CBF         14.0170    10.5440    10.3080 c3         1 1PZ      -0.082400
     33 CBG         13.9740    11.8580     9.5260 c3         1 1PZ      -0.082400
     34 CBH         13.4190    12.9680    10.4230 c3         1 1PZ      -0.082400
     35 CBI         13.3770    14.2820     9.6420 c3         1 1PZ      -0.082400
     36 CBJ         12.8230    15.3910    10.5380 c3         1 1PZ      -0.082400
     37 CBK         12.7800    16.7060     9.7560 c3         1 1PZ      -0.084400
     38 CBL         12.2260    17.8140    10.6530 c3         1 1PZ      -0.092100
     39 H1          -0.3610     0.8850     0.5100 hc         1 1PZ       0.030367
     40 H2          -0.3610    -0.0000    -1.0210 hc         1 1PZ       0.030367
     41 H3          -0.3610    -0.8840     0.5110 hc         1 1PZ       0.030367
     42 H4           1.8910     0.8850    -0.5110 hc         1 1PZ       0.039700
     43 H5           1.8910    -0.8850    -0.5110 hc         1 1PZ       0.039700
     44 H6           1.6780     0.8840     1.9530 hc         1 1PZ       0.040200
     45 H7           1.6790    -0.8850     1.9520 hc         1 1PZ       0.040200
     46 H8           3.9300     0.8870     0.9330 hc         1 1PZ       0.041200
     47 H9           3.9320    -0.8820     0.9310 hc         1 1PZ       0.041200
     48 H10          3.7180     0.8840     3.3970 hc         1 1PZ       0.039700
     49 H11          3.7190    -0.8850     3.3950 hc         1 1PZ       0.039700
     50 H12          5.9700     0.8870     2.3760 hc         1 1PZ       0.041200
     51 H13          5.9720    -0.8820     2.3740 hc         1 1PZ       0.041200
     52 H14          5.7590    -0.8840     4.8380 hc         1 1PZ       0.039200
     53 H15          5.7580     0.8850     4.8400 hc         1 1PZ       0.039200
     54 H16          8.0110    -0.8830     3.8170 hc         1 1PZ       0.041200
     55 H17          8.0100     0.8870     3.8180 hc         1 1PZ       0.041200
     56 H18          7.7970     0.8860     6.2820 hc         1 1PZ       0.038200
     57 H19          7.7980    -0.8840     6.2810 hc         1 1PZ       0.038200
     58 H20         10.0490     0.8880     5.2620 hc         1 1PZ       0.042200
     59 H21         10.0510    -0.8810     5.2600 hc         1 1PZ       0.042200
     60 H22          9.8390    -0.8830     7.7240 hc         1 1PZ       0.035200
     61 H23          9.8370     0.8860     7.7250 hc         1 1PZ       0.035200
     62 H24         12.0890     0.8890     6.7040 hc         1 1PZ       0.046200
     63 H25         12.0910    -0.8800     6.7030 hc         1 1PZ       0.046200
     64 H26         11.8790    -0.8830     9.1660 hc         1 1PZ       0.032200
     65 H27         11.8770     0.8860     9.1680 hc         1 1PZ       0.032200
     66 H28         14.2890    -0.7640     8.1180 ha         1 1PZ       0.143000
     67 H30         13.8570     1.7010     9.8470 ha         1 1PZ       0.113000
     68 H32         16.2680     0.7570    10.3140 h1         1 1PZ       0.092700
     69 H33         16.7290    -0.8070     8.9580 ho         1 1PZ       0.413000
     70 H34         16.0860     2.4510     7.7960 h1         1 1PZ       0.059700
     71 H35         18.3030     3.2950     8.5910 h1         1 1PZ       0.036700
     72 H36         18.3390     1.5760     8.1730 h1         1 1PZ       0.036700
     73 H39         15.6400     3.1520    10.6230 hn         1 1PZ       0.312500
     74 H40         15.8480     5.8140    10.9460 hc         1 1PZ       0.053700
     75 H41         14.2090     5.4360    10.3980 hc         1 1PZ       0.053700
     76 H42         16.1690     7.2740     8.9760 hc         1 1PZ       0.057200
     77 H43         14.5290     6.8960     8.4290 hc         1 1PZ       0.057200
     78 H44         15.2510     8.2370    11.0610 hc         1 1PZ       0.035700
     79 H45         13.6120     7.8590    10.5140 hc         1 1PZ       0.035700
     80 H46         15.5720     9.6970     9.0910 hc         1 1PZ       0.042200
     81 H47         13.9320     9.3190     8.5440 hc         1 1PZ       0.042200
     82 H48         13.0150    10.2820    10.6290 hc         1 1PZ       0.038200
     83 H49         14.6550    10.6600    11.1750 hc         1 1PZ       0.038200
     84 H50         13.3360    11.7420     8.6590 hc         1 1PZ       0.040700
     85 H51         14.9750    12.1200     9.2060 hc         1 1PZ       0.040700
     86 H52         14.0570    13.0840    11.2910 hc         1 1PZ       0.039200
     87 H53         12.4180    12.7060    10.7440 hc         1 1PZ       0.039200
     88 H54         12.7380    14.1660     8.7740 hc         1 1PZ       0.040200
     89 H55         14.3780    14.5440     9.3210 hc         1 1PZ       0.040200
     90 H56         11.8220    15.1290    10.8580 hc         1 1PZ       0.040200
     91 H57         13.4610    15.5070    11.4050 hc         1 1PZ       0.040200
     92 H58         13.7810    16.9670     9.4350 hc         1 1PZ       0.039200
     93 H59         12.1420    16.5900     8.8890 hc         1 1PZ       0.039200
     94 H60         12.8640    17.9300    11.5210 hc         1 1PZ       0.029367
     95 H61         12.1960    18.7450    10.1000 hc         1 1PZ       0.029367
     96 H62         11.2250    17.5520    10.9730 hc         1 1PZ       0.029367
@<TRIPOS>BOND
     1     1     2 1   
     2     2     3 1   
     3    38    37 1   
     4     3     4 1   
     5     4     5 1   
     6    37    36 1   
     7    36    35 1   
     8     5     6 1   
     9     6     7 1   
    10    35    34 1   
    11    34    33 1   
    12     7     8 1   
    13     8     9 1   
    14    33    32 1   
    15    32    31 1   
    16     9    10 1   
    17    10    11 1   
    18    31    30 1   
    19    30    29 1   
    20    11    12 1   
    21    12    13 1   
    22    13    14 1   
    23    29    28 1   
    24    28    26 1   
    25    27    26 2   
    26    14    15 2   
    27    26    25 1   
    28    15    16 1   
    29    25    18 1   
    30    16    18 1   
    31    16    17 1   
    32    18    19 1   
    33    19    20 1   
    34    20    21 1   
    35    22    21 1   
    36    21    24 1   
    37    21    23 1   
    38     1    39 1   
    39     1    40 1   
    40     1    41 1   
    41     2    42 1   
    42     2    43 1   
    43     3    44 1   
    44     3    45 1   
    45     4    46 1   
    46     4    47 1   
    47     5    48 1   
    48     5    49 1   
    49     6    50 1   
    50     6    51 1   
    51     7    52 1   
    52     7    53 1   
    53     8    54 1   
    54     8    55 1   
    55     9    56 1   
    56     9    57 1   
    57    10    58 1   
    58    10    59 1   
    59    11    60 1   
    60    11    61 1   
    61    12    62 1   
    62    12    63 1   
    63    13    64 1   
    64    13    65 1   
    65    14    66 1   
    66    15    67 1   
    67    16    68 1   
    68    17    69 1   
    69    18    70 1   
    70    19    71 1   
    71    19    72 1   
    72    25    73 1   
    73    28    74 1   
    74    28    75 1   
    75    29    76 1   
    76    29    77 1   
    77    30    78 1   
    78    30    79 1   
    79    31    80 1   
    80    31    81 1   
    81    32    82 1   
    82    32    83 1   
    83    33    84 1   
    84    33    85 1   
    85    34    86 1   
    86    34    87 1   
    87    35    88 1   
    88    35    89 1   
    89    36    90 1   
    90    36    91 1   
    91    37    92 1   
    92    37    93 1   
    93    38    94 1   
    94    38    95 1   
    95    38    96 1   
@<TRIPOS>SUBSTRUCTURE
     1 1PZ         1 TEMP              0 ****  ****    0 ROOT
