@<TRIPOS>MOLECULE
1Q0
  112   111     1     0     0
SMALL
bcc


@<TRIPOS>ATOM
      1 CAB         2.4300   -6.5150   -1.3020 c3        1 1Q0     -0.091100
      2 CAM         3.8440   -6.2770   -0.8380 c3        1 1Q0     -0.080400
      3 CAR         3.8920   -5.3090    0.3260 c3        1 1Q0     -0.079400
      4 CAW         5.3140   -5.0730    0.7880 c3        1 1Q0     -0.079400
      5 CBB         5.3610   -4.1060    1.9520 c3        1 1Q0     -0.079400
      6 CBE         6.7830   -3.8700    2.4140 c3        1 1Q0     -0.078400
      7 CBG         6.8300   -2.9020    3.5770 c3        1 1Q0     -0.079400
      8 CBH         8.2510   -2.6660    4.0400 c3        1 1Q0     -0.078400
      9 CBF         8.2980   -1.6980    5.2040 c3        1 1Q0     -0.079400
     10 CBC         9.7200   -1.4600    5.6670 c3        1 1Q0     -0.077400
     11 CAZ         9.7660   -0.4910    6.8290 c3        1 1Q0     -0.081400
     12 CAU        11.1880   -0.2500    7.2920 c3        1 1Q0     -0.071400
     13 CAP        11.2290    0.7280    8.4490 c3        1 1Q0     -0.037200
     14 CAJ        12.6170    0.9940    8.9000 c2        1 1Q0     -0.263200
     15 CAK        13.0020    2.0680    9.5950 c2        1 1Q0     -0.131200
     16 CBP        12.0940    3.1760   10.0360 c3        1 1Q0      0.184300
     17 OAE        12.4830    3.6910   11.2860 oh        1 1Q0     -0.670800
     18 CBQ        12.0320    4.2840    8.9410 c3        1 1Q0      0.028700
     19 CBL        13.4560    4.8160    8.5570 c3        1 1Q0      0.230400
     20 OBN        13.9410    5.7040    9.4780 os        1 1Q0     -0.574200
     21 PBR        15.5270    5.2990   10.0800 p5        1 1Q0      1.322900
     22 OAF        15.7900    6.3980   11.0610 o         1 1Q0     -0.919833
     23 OAG        15.1700    3.9420   10.6580 o         1 1Q0     -0.919833
     24 OAD        16.3450    5.2480    8.8250 o         1 1Q0     -0.919833
     25 NBM        11.1950    5.3910    9.3560 n         1 1Q0     -0.496900
     26 CBO         9.8410    5.4260    9.2750 c         1 1Q0      0.644100
     27 OAC         9.1500    4.5700    8.6650 o         1 1Q0     -0.695100
     28 CBK         9.1320    6.6090    9.9310 c3        1 1Q0     -0.155400
     29 CBJ         9.6130    7.9380    9.3960 c3        1 1Q0     -0.082400
     30 CBI         8.7900    9.0800    9.9560 c3        1 1Q0     -0.075400
     31 CBD         9.3020   10.4150    9.4570 c3        1 1Q0     -0.082400
     32 CAY         8.4950   11.5630   10.0240 c3        1 1Q0     -0.077400
     33 CAT         9.0210   12.8960    9.5370 c3        1 1Q0     -0.078400
     34 CAO         8.2260   14.0630   10.0850 c3        1 1Q0     -0.051200
     35 CAI         6.8740   14.1830    9.4890 c2        1 1Q0     -0.153200
     36 CAH         5.9860   15.1200    9.8390 c2        1 1Q0     -0.198200
     37 CAN         6.2430   16.1480   10.8750 c3        1 1Q0     -0.045200
     38 CAS         5.1270   17.1650   10.9980 c3        1 1Q0     -0.074400
     39 CAX         5.0710   18.0960    9.8060 c3        1 1Q0     -0.080400
     40 CBA         3.9330   19.0850    9.9320 c3        1 1Q0     -0.078400
     41 CAV         3.8820   20.0200    8.7420 c3        1 1Q0     -0.079400
     42 CAQ         2.7430   21.0090    8.8670 c3        1 1Q0     -0.078400
     43 CAL         2.6920   21.9440    7.6780 c3        1 1Q0     -0.080400
     44 CAA         1.5600   22.9310    7.7970 c3        1 1Q0     -0.091100
     45 H1          1.9580   -5.5590   -1.6330 hc        1 1Q0      0.029700
     46 H2          2.4170   -7.2300   -2.1600 hc        1 1Q0      0.029700
     47 H3          1.8120   -6.9430   -0.4760 hc        1 1Q0      0.029700
     48 H4          4.4560   -5.8700   -1.6870 hc        1 1Q0      0.037200
     49 H5          4.3100   -7.2510   -0.5330 hc        1 1Q0      0.037200
     50 H6          3.4290   -4.3340    0.0220 hc        1 1Q0      0.038700
     51 H7          5.9240   -4.6680   -0.0620 hc        1 1Q0      0.038200
     52 H8          4.8980   -3.1300    1.6480 hc        1 1Q0      0.038700
     53 H9          7.3920   -3.4640    1.5640 hc        1 1Q0      0.037700
     54 H10         6.2200   -3.3070    4.4280 hc        1 1Q0      0.038700
     55 H11         6.3670   -1.9260    3.2740 hc        1 1Q0      0.038700
     56 H12         8.8610   -2.2600    3.1910 hc        1 1Q0      0.036700
     57 H13         8.7150   -3.6410    4.3440 hc        1 1Q0      0.036700
     58 H14         7.6880   -2.1020    6.0540 hc        1 1Q0      0.038700
     59 H15         7.8360   -0.7220    4.9000 hc        1 1Q0      0.038700
     60 H16        10.1840   -2.4350    5.9720 hc        1 1Q0      0.034200
     61 H17        10.3300   -1.0560    4.8170 hc        1 1Q0      0.034200
     62 H18         9.1570   -0.8940    7.6800 hc        1 1Q0      0.040700
     63 H19         9.3030    0.4850    6.5250 hc        1 1Q0      0.040700
     64 H20        11.6520   -1.2230    7.6010 hc        1 1Q0      0.031200
     65 H21        11.7980    0.1530    6.4420 hc        1 1Q0      0.031200
     66 H22        10.7320    1.6890    8.1420 hc        1 1Q0      0.041200
     67 H23        10.6310    0.3130    9.3060 hc        1 1Q0      0.041200
     68 H24        13.3550    0.2240    8.6270 ha        1 1Q0      0.095000
     69 H26        14.0590    2.2230    9.9220 ha        1 1Q0      0.221000
     70 H28        11.5680    3.8150    8.0260 h1        1 1Q0      0.035700
     71 H29        14.1390    3.9300    8.4370 h1        1 1Q0      0.003700
     72 H30        13.3320    5.3230    7.5510 h1        1 1Q0      0.003700
     73 H33        11.6850    6.0560    9.9220 hn        1 1Q0      0.346500
     74 H34         9.2940    6.5580   11.0400 hc        1 1Q0      0.050700
     75 H35         8.0330    6.4930    9.7400 hc        1 1Q0      0.050700
     76 H36         9.5450    7.9390    8.2760 hc        1 1Q0      0.059700
     77 H37         8.8320    9.0570   11.0770 hc        1 1Q0      0.029700
     78 H38         9.2570   10.4380    8.3360 hc        1 1Q0      0.047200
     79 H39        10.3800   10.5320    9.7460 hc        1 1Q0      0.047200
     80 H40         8.5340   11.5300   11.1450 hc        1 1Q0      0.034200
     81 H41         7.4180   11.4520    9.7280 hc        1 1Q0      0.034200
     82 H42        10.0920   13.0060    9.8540 hc        1 1Q0      0.044700
     83 H43         9.0040   12.9190    8.4150 hc        1 1Q0      0.044700
     84 H44         8.1320   13.9620   11.2010 hc        1 1Q0      0.044700
     85 H45         8.7930   15.0160    9.8930 hc        1 1Q0      0.044700
     86 H46         6.6210   13.4370    8.7170 ha        1 1Q0      0.127000
     87 H48         4.9960   15.1560    9.3570 ha        1 1Q0      0.116000
     88 H50         7.2090   16.6770   10.6480 hc        1 1Q0      0.046700
     89 H51         6.3820   15.6360   11.8680 hc        1 1Q0      0.046700
     90 H52         4.1440   16.6340   11.1070 hc        1 1Q0      0.035700
     91 H53         5.2840   17.7680   11.9310 hc        1 1Q0      0.035700
     92 H54         4.9470   17.4940    8.8670 hc        1 1Q0      0.043200
     93 H55         6.0430   18.6500    9.7160 hc        1 1Q0      0.043200
     94 H56         2.9600   18.5310   10.0160 hc        1 1Q0      0.036700
     95 H57         3.7610   19.4230    7.8000 hc        1 1Q0      0.040700
     96 H58         1.7710   20.4540    8.9500 hc        1 1Q0      0.037700
     97 H59         2.8640   21.6050    9.8090 hc        1 1Q0      0.037700
     98 H60         3.6660   22.4960    7.5960 hc        1 1Q0      0.039200
     99 H61         2.5730   21.3450    6.7370 hc        1 1Q0      0.039200
    100 H62         1.6750   23.5540    8.7170 hc        1 1Q0      0.030033
    101 H63         1.5410   23.6100    6.9110 hc        1 1Q0      0.030033
    102 H64         0.5790   22.3990    7.8550 hc        1 1Q0      0.030033
    103 H65         3.2830   -5.7140    1.1760 hc        1 1Q0      0.038700
    104 H66         5.7780   -6.0490    1.0910 hc        1 1Q0      0.038200
    105 H67         4.7510   -4.5110    2.8020 hc        1 1Q0      0.038700
    106 H68         7.2470   -4.8450    2.7170 hc        1 1Q0      0.037700
    107 H25        11.0480    2.7790   10.2040 h1        1 1Q0      0.023700
    108 H27        13.4230    4.0130   11.1970 ho        1 1Q0      0.500000
    109 H69        10.6940    8.0940    9.6620 hc        1 1Q0      0.059700
    110 H70         7.7150    8.9540    9.6620 hc        1 1Q0      0.029700
    111 H47         4.0550   19.6810   10.8740 hc        1 1Q0      0.036700
    112 H49         4.8540   20.5740    8.6590 hc        1 1Q0      0.040700
@<TRIPOS>BOND
     1    1    2 1   
     2    1   45 1   
     3    1   46 1   
     4    1   47 1   
     5    2    3 1   
     6    2   48 1   
     7    2   49 1   
     8    3    4 1   
     9    3   50 1   
    10    3  103 1   
    11    4    5 1   
    12    4   51 1   
    13    4  104 1   
    14    5    6 1   
    15    5   52 1   
    16    5  105 1   
    17    6    7 1   
    18    6   53 1   
    19    6  106 1   
    20    7    8 1   
    21    7   54 1   
    22    7   55 1   
    23    8    9 1   
    24    8   56 1   
    25    8   57 1   
    26    9   10 1   
    27    9   58 1   
    28    9   59 1   
    29   10   11 1   
    30   10   60 1   
    31   10   61 1   
    32   11   12 1   
    33   11   62 1   
    34   11   63 1   
    35   12   13 1   
    36   12   64 1   
    37   12   65 1   
    38   13   14 1   
    39   13   66 1   
    40   13   67 1   
    41   14   15 2   
    42   14   68 1   
    43   15   16 1   
    44   15   69 1   
    45   16   17 1   
    46   16   18 1   
    47   16  107 1   
    48   17  108 1   
    49   18   19 1   
    50   18   25 1   
    51   18   70 1   
    52   19   20 1   
    53   19   71 1   
    54   19   72 1   
    55   20   21 1   
    56   21   22 1   
    57   21   23 1   
    58   21   24 1   
    59   25   26 1   
    60   25   73 1   
    61   26   27 2   
    62   26   28 1   
    63   28   29 1   
    64   28   74 1   
    65   28   75 1   
    66   29   30 1   
    67   29   76 1   
    68   29  109 1   
    69   30   31 1   
    70   30   77 1   
    71   30  110 1   
    72   31   32 1   
    73   31   78 1   
    74   31   79 1   
    75   32   33 1   
    76   32   80 1   
    77   32   81 1   
    78   33   34 1   
    79   33   82 1   
    80   33   83 1   
    81   34   35 1   
    82   34   84 1   
    83   34   85 1   
    84   35   36 2   
    85   35   86 1   
    86   36   37 1   
    87   36   87 1   
    88   37   38 1   
    89   37   88 1   
    90   37   89 1   
    91   38   39 1   
    92   38   90 1   
    93   38   91 1   
    94   39   40 1   
    95   39   92 1   
    96   39   93 1   
    97   40   41 1   
    98   40   94 1   
    99   40  111 1   
   100   41   42 1   
   101   41   95 1   
   102   41  112 1   
   103   42   43 1   
   104   42   96 1   
   105   42   97 1   
   106   43   44 1   
   107   43   98 1   
   108   43   99 1   
   109   44  100 1   
   110   44  101 1   
   111   44  102 1   
@<TRIPOS>SUBSTRUCTURE
     1 1Q0         1 TEMP              0 ****  ****    0 ROOT
