@<TRIPOS>MOLECULE
molecule
  112   111     1     0     0
SMALL
bcc


@<TRIPOS>ATOM
      1 CAB          0.0000     0.0000     0.0000 c3         1 1Q0      -0.092100
      2 CAM          1.5300     0.0000     0.0000 c3         1 1Q0      -0.084400
      3 CAR          2.0390     0.0000     1.4420 c3         1 1Q0      -0.081400
      4 CAW          3.5690     0.0000     1.4420 c3         1 1Q0      -0.082400
      5 CBB          4.0800     0.0000     2.8840 c3         1 1Q0      -0.082400
      6 CBE          5.6090     0.0010     2.8850 c3         1 1Q0      -0.082400
      7 CBG          6.1200     0.0010     4.3270 c3         1 1Q0      -0.082400
      8 CBH          7.6500     0.0010     4.3270 c3         1 1Q0      -0.082400
      9 CBF          8.1600     0.0010     5.7690 c3         1 1Q0      -0.082400
     10 CBC          9.6900     0.0010     5.7690 c3         1 1Q0      -0.080400
     11 CAZ         10.2000     0.0010     7.2120 c3         1 1Q0      -0.091400
     12 CAU         11.7300     0.0020     7.2120 c3         1 1Q0      -0.093400
     13 CAP         12.2400     0.0010     8.6540 c3         1 1Q0       0.057800
     14 CAJ         13.7460     0.0010     8.6550 c2         1 1Q0      -0.316200
     15 CAK         14.4020     0.9050     9.3410 c2         1 1Q0      -0.105200
     16 CBP         13.6600     1.8230    10.2780 c3         1 1Q0       0.265300
     17 OAE         14.2550     1.7610    11.5760 oh         1 1Q0      -0.492800
     18 CBQ         13.7350     3.2570     9.7500 c3         1 1Q0       0.073700
     19 CBL         15.1950     3.7100     9.7100 c3         1 1Q0       0.209400
     20 OBN         15.7760     3.5630    11.0060 os         1 1Q0      -0.559200
     21 PBR         17.3070     3.9470    11.3300 p5         1 1Q0       1.178900
     22 OAF         17.6540     3.5310    12.8470 o          1 1Q0      -0.907833
     23 OAG         18.2030     3.2210    10.4020 o          1 1Q0      -0.907833
     24 OAD         17.5130     5.5320    11.1470 o          1 1Q0      -0.907833
     25 NBM         12.9730     4.1430    10.6350 ns         1 1Q0      -0.544900
     26 CBO         12.4670     5.2980    10.1600 c          1 1Q0       0.663100
     27 OAC         12.6410     5.6050     9.0000 o          1 1Q0      -0.639100
     28 CBK         11.6840     6.2090    11.0700 c3         1 1Q0      -0.158400
     29 CBJ         11.2260     7.4410    10.2880 c3         1 1Q0      -0.064400
     30 CBI         10.4320     8.3660    11.2120 c3         1 1Q0      -0.085400
     31 CBD          9.9740     9.5990    10.4290 c3         1 1Q0      -0.080400
     32 CAY          9.1790    10.5240    11.3540 c3         1 1Q0      -0.083400
     33 CAT          8.7200    11.7560    10.5710 c3         1 1Q0      -0.078400
     34 CAO          7.9260    12.6800    11.4950 c3         1 1Q0      -0.051200
     35 CAI          7.4750    13.8940    10.7240 c2         1 1Q0      -0.160200
     36 CAH          6.2050    14.2130    10.6890 c2         1 1Q0      -0.194200
     37 CAN          5.7530    15.4270     9.9190 c3         1 1Q0      -0.044200
     38 CAS          4.6760    15.0200     8.9120 c3         1 1Q0      -0.078400
     39 CAX          4.2170    16.2520     8.1290 c3         1 1Q0      -0.083400
     40 CBA          3.1410    15.8440     7.1210 c3         1 1Q0      -0.081400
     41 CAV          2.6820    17.0770     6.3390 c3         1 1Q0      -0.082400
     42 CAQ          1.6050    16.6700     5.3320 c3         1 1Q0      -0.082400
     43 CAL          1.1470    17.9020     4.5490 c3         1 1Q0      -0.084400
     44 CAA          0.0700    17.4950     3.5410 c3         1 1Q0      -0.092100
     45 H1          -0.3610     0.8880     0.5040 hc         1 1Q0       0.030367
     46 H2          -0.3610    -0.0070    -1.0210 hc         1 1Q0       0.030367
     47 H3          -0.3610    -0.8810     0.5170 hc         1 1Q0       0.030367
     48 H4           1.8910    -0.8850    -0.5110 hc         1 1Q0       0.039700
     49 H5           1.8910     0.8850    -0.5110 hc         1 1Q0       0.039700
     50 H6           1.6780     0.8850     1.9530 hc         1 1Q0       0.040200
     51 H7           3.9300    -0.8840     0.9310 hc         1 1Q0       0.040700
     52 H8           3.7200    -0.8840     3.3950 hc         1 1Q0       0.039700
     53 H9           5.9700     0.8850     2.3740 hc         1 1Q0       0.040700
     54 H10          5.7590     0.8850     4.8380 hc         1 1Q0       0.039700
     55 H11          5.7590    -0.8840     4.8380 hc         1 1Q0       0.039700
     56 H12          8.0110    -0.8840     3.8160 hc         1 1Q0       0.040700
     57 H13          8.0110     0.8850     3.8160 hc         1 1Q0       0.040700
     58 H14          7.7990     0.8860     6.2800 hc         1 1Q0       0.038200
     59 H15          7.7990    -0.8830     6.2800 hc         1 1Q0       0.038200
     60 H16         10.0510     0.8860     5.2590 hc         1 1Q0       0.042200
     61 H17         10.0510    -0.8830     5.2580 hc         1 1Q0       0.042200
     62 H18          9.8380     0.8840     7.7230 hc         1 1Q0       0.034700
     63 H19          9.8400    -0.8850     7.7220 hc         1 1Q0       0.034700
     64 H20         12.0920    -0.8820     6.7010 hc         1 1Q0       0.052200
     65 H21         12.0900     0.8870     6.7020 hc         1 1Q0       0.052200
     66 H22         11.8780     0.8850     9.1650 hc         1 1Q0       0.024200
     67 H23         11.8790    -0.8840     9.1640 hc         1 1Q0       0.024200
     68 H24         13.1950    -0.4900     9.4470 ha         1 1Q0       0.045000
     69 H26         13.9370     1.8120     8.9720 ha         1 1Q0       0.071000
     70 H28         13.3160     3.2970     8.7520 h1         1 1Q0       0.057700
     71 H29         15.2420     4.7500     9.4090 h1         1 1Q0       0.033200
     72 H30         15.7420     3.1040     8.9980 h1         1 1Q0       0.033200
     73 H33         12.8100     3.8790    11.5870 hn         1 1Q0       0.320500
     74 H34         10.8190     5.6810    11.4520 hc         1 1Q0       0.055700
     75 H35         12.3110     6.5190    11.8980 hc         1 1Q0       0.055700
     76 H36         10.5990     7.1310     9.4610 hc         1 1Q0       0.057200
     77 H37         11.0590     8.6760    12.0390 hc         1 1Q0       0.036200
     78 H38          9.3460     9.2890     9.6020 hc         1 1Q0       0.042700
     79 H39         10.8390    10.1270    10.0480 hc         1 1Q0       0.042700
     80 H40          8.3130     9.9950    11.7360 hc         1 1Q0       0.038200
     81 H41          9.8060    10.8340    12.1800 hc         1 1Q0       0.038200
     82 H42          8.0920    11.4450     9.7440 hc         1 1Q0       0.042700
     83 H43          9.5850    12.2840    10.1890 hc         1 1Q0       0.042700
     84 H44          8.5530    12.9890    12.3220 hc         1 1Q0       0.045700
     85 H45          7.0600    12.1520    11.8770 hc         1 1Q0       0.045700
     86 H46          8.2010    14.5030    10.1980 ha         1 1Q0       0.123000
     87 H48          5.4790    13.6040    11.2150 ha         1 1Q0       0.122000
     88 H50          5.3470    16.1600    10.6050 hc         1 1Q0       0.042200
     89 H51          6.5980    15.8550     9.3910 hc         1 1Q0       0.042200
     90 H52          3.8320    14.5920     9.4390 hc         1 1Q0       0.044200
     91 H53          5.0820    14.2860     8.2260 hc         1 1Q0       0.044200
     92 H54          5.0620    16.6790     7.6020 hc         1 1Q0       0.039200
     93 H55          3.8110    16.9850     8.8150 hc         1 1Q0       0.039200
     94 H56          2.2960    15.4170     7.6480 hc         1 1Q0       0.042200
     95 H57          3.5270    17.5040     5.8110 hc         1 1Q0       0.040200
     96 H58          2.0110    15.9360     4.6450 hc         1 1Q0       0.041200
     97 H59          0.7610    16.2420     5.8590 hc         1 1Q0       0.041200
     98 H60          1.9910    18.3300     4.0220 hc         1 1Q0       0.038700
     99 H61          0.7410    18.6350     5.2360 hc         1 1Q0       0.038700
    100 H62         -0.2510    18.3670     2.9840 hc         1 1Q0       0.031367
    101 H63          0.4750    16.7590     2.8580 hc         1 1Q0       0.031367
    102 H64         -0.7760    17.0710     4.0690 hc         1 1Q0       0.031367
    103 H65          1.6780    -0.8850     1.9530 hc         1 1Q0       0.040200
    104 H66          3.9300     0.8840     0.9310 hc         1 1Q0       0.040700
    105 H67          3.7190     0.8840     3.3950 hc         1 1Q0       0.039700
    106 H68          5.9710    -0.8840     2.3740 hc         1 1Q0       0.040700
    107 H25         12.6240     1.5140    10.3410 h1         1 1Q0       0.023700
    108 H27         13.8650     1.0570    12.0670 ho         1 1Q0       0.363000
    109 H69         12.0920     7.9690     9.9060 hc         1 1Q0       0.057200
    110 H70          9.5660     7.8390    11.5930 hc         1 1Q0       0.036200
    111 H47          3.5470    15.1110     6.4350 hc         1 1Q0       0.042200
    112 H49          2.2770    17.8100     7.0250 hc         1 1Q0       0.040200
@<TRIPOS>BOND
     1    23    21 1
     2    22    21 1
     3    21    24 1
     4    21    20 1
     5    20    19 1
     6    19    18 1
     7    17    16 1
     8    15    16 1
     9    15    14 2
    10    16    18 1
    11    18    25 1
    12    14    13 1
    13    25    26 1
    14    13    12 1
    15    26    27 2
    16    26    28 1
    17    12    11 1
    18    28    29 1
    19    30    29 1
    20    30    31 1
    21    11    10 1
    22    31    32 1
    23    10     9 1
    24    32    33 1
    25     9     8 1
    26    36    37 1
    27    36    35 2
    28    33    34 1
    29    34    35 1
    30    37    38 1
    31    38    39 1
    32     8     7 1
    33     4     5 1
    34     4     3 1
    35     5     6 1
    36     7     6 1
    37    39    40 1
    38     2     3 1
    39     2     1 1
    40    40    41 1
    41    41    42 1
    42    42    43 1
    43    43    44 1
    44     1    45 1
    45     1    46 1
    46     1    47 1
    47     2    48 1
    48     2    49 1
    49     3    50 1
    50     4    51 1
    51     5    52 1
    52     6    53 1
    53     7    54 1
    54     7    55 1
    55     8    56 1
    56     8    57 1
    57     9    58 1
    58     9    59 1
    59    10    60 1
    60    10    61 1
    61    11    62 1
    62    11    63 1
    63    12    64 1
    64    12    65 1
    65    13    66 1
    66    13    67 1
    67    14    68 1
    68    15    69 1
    69    18    70 1
    70    19    71 1
    71    19    72 1
    72    25    73 1
    73    28    74 1
    74    28    75 1
    75    29    76 1
    76    30    77 1
    77    31    78 1
    78    31    79 1
    79    32    80 1
    80    32    81 1
    81    33    82 1
    82    33    83 1
    83    34    84 1
    84    34    85 1
    85    35    86 1
    86    36    87 1
    87    37    88 1
    88    37    89 1
    89    38    90 1
    90    38    91 1
    91    39    92 1
    92    39    93 1
    93    40    94 1
    94    41    95 1
    95    42    96 1
    96    42    97 1
    97    43    98 1
    98    43    99 1
    99    44   100 1
   100    44   101 1
   101    44   102 1
   102     3   103 1
   103     4   104 1
   104     5   105 1
   105     6   106 1
   106    16   107 1
   107    17   108 1
   108    29   109 1
   109    30   110 1
   110    40   111 1
   111    41   112 1
@<TRIPOS>SUBSTRUCTURE
     1 1Q0         1 TEMP              0 ****  ****    0 ROOT
