@<TRIPOS>MOLECULE
molecule
   29    30     1     0     0
SMALL
bcc


@<TRIPOS>ATOM
      1 O1           0.0000     0.0000     0.0000 oh         1 1Q1      -0.507100
      2 C1           1.3590     0.0000     0.0000 ca         1 1Q1       0.082100
      3 C2           2.0540     0.0000     1.2050 ca         1 1Q1       0.113900
      4 F2           1.3760     0.0000     2.3740 f          1 1Q1      -0.124900
      5 C3           3.4330    -0.0010     1.2080 ca         1 1Q1      -0.122000
      6 C4           4.1310    -0.0010    -0.0020 ca         1 1Q1      -0.094900
      7 C5           3.4290    -0.0010    -1.2090 ca         1 1Q1      -0.112000
      8 C6           2.0510    -0.0060    -1.2040 ca         1 1Q1      -0.139000
      9 C7           5.6060    -0.0010    -0.0050 ce         1 1Q1       0.364900
     10 N8           6.3660    -0.0010     1.0400 n2         1 1Q1      -0.362200
     11 O9           7.7420     0.0070     0.7190 os         1 1Q1      -0.144300
     12 C10          7.8720    -0.4020    -0.6580 c3         1 1Q1       0.111100
     13 C11          6.4930    -0.0070    -1.2360 c3         1 1Q1      -0.186700
     14 C12          8.9970     0.3600    -1.3580 c3         1 1Q1      -0.182400
     15 C13         10.3280    -0.1370    -0.8560 c          1 1Q1       0.560100
     16 O13         10.3720    -1.0110    -0.0240 o          1 1Q1      -0.505100
     17 C14         11.6050     0.4560    -1.3930 c3         1 1Q1      -0.194100
     18 H1          -0.3140     0.8810    -0.1210 ho         1 1Q1       0.425000
     19 H2           3.9740    -0.0010     2.1470 ha         1 1Q1       0.172000
     20 H3           3.9670    -0.0030    -2.1490 ha         1 1Q1       0.139000
     21 H4           1.5070    -0.0060    -2.1400 ha         1 1Q1       0.150000
     22 H5           8.0220    -1.4730    -0.7250 h1         1 1Q1       0.081700
     23 H6           6.1520    -0.7470    -1.9500 hc         1 1Q1       0.070200
     24 H7           6.5340     0.9780    -1.6830 hc         1 1Q1       0.070200
     25 H8           8.9030     1.4180    -1.1460 hc         1 1Q1       0.075200
     26 H9           8.9320     0.1990    -2.4270 hc         1 1Q1       0.075200
     27 H10         11.6260     1.5190    -1.1850 hc         1 1Q1       0.061700
     28 H11         12.4530    -0.0210    -0.9170 hc         1 1Q1       0.061700
     29 H12         11.6550     0.2970    -2.4640 hc         1 1Q1       0.061700
@<TRIPOS>BOND
     1    17    15 1   
     2    15    14 1   
     3    15    16 2   
     4    14    12 1   
     5    12    13 1   
     6    12    11 1   
     7    13     9 1   
     8    11    10 1   
     9    10     9 2   
    10     9     6 1   
    11     7     6 ar  
    12     7     8 ar  
    13     6     5 ar  
    14     8     2 ar  
    15     5     3 ar  
    16     2     3 ar  
    17     2     1 1   
    18     3     4 1   
    19     1    18 1   
    20     5    19 1   
    21     7    20 1   
    22     8    21 1   
    23    12    22 1   
    24    13    23 1   
    25    13    24 1   
    26    14    25 1   
    27    14    26 1   
    28    17    27 1   
    29    17    28 1   
    30    17    29 1   
@<TRIPOS>SUBSTRUCTURE
     1 1Q1         1 TEMP              0 ****  ****    0 ROOT
