@<TRIPOS>MOLECULE
1Q1
   29    30     1     0     0
SMALL
bcc


@<TRIPOS>ATOM
      1 O1           0.1680     0.2910    -0.2750 oh         1 1Q1      -0.485100
      2 C1           1.5060    -0.0000    -0.1880 ca         1 1Q1       0.112100
      3 C2           2.0950    -0.5550     0.9730 ca         1 1Q1       0.031900
      4 F2           1.3170    -0.8170     2.0540 f          1 1Q1      -0.141900
      5 C3           3.4700    -0.8300     0.9990 ca         1 1Q1      -0.089000
      6 C4           4.2560    -0.5530    -0.1260 ca         1 1Q1      -0.123900
      7 C5           3.6600    -0.0020    -1.2730 ca         1 1Q1      -0.093000
      8 C6           2.3000     0.2740    -1.3110 ca         1 1Q1      -0.143000
      9 C7           5.6830    -0.8300    -0.1180 ce         1 1Q1       0.333900
     10 N8           6.3780    -1.3550     0.8810 n2         1 1Q1      -0.352200
     11 O9           7.6460    -1.4850     0.5800 os         1 1Q1      -0.153300
     12 C10          7.9460    -0.9880    -0.7920 c3         1 1Q1       0.102100
     13 C11          6.5750    -0.5270    -1.3170 c3         1 1Q1      -0.167700
     14 C12          8.9620     0.1290    -0.6950 c3         1 1Q1      -0.196400
     15 C13         10.3370    -0.4080    -0.3850 c          1 1Q1       0.572100
     16 O13         11.1300    -0.6940    -1.2870 o          1 1Q1      -0.530100
     17 C14         10.6610    -0.5610     1.0630 c3         1 1Q1      -0.204100
     18 H1          -0.2490     0.0470     0.5670 ho         1 1Q1       0.434000
     19 H2           3.9100    -1.2630     1.9110 ha         1 1Q1       0.171000
     20 H3           4.2750     0.2160    -2.1600 ha         1 1Q1       0.140000
     21 H4           1.8300     0.7050    -2.2070 ha         1 1Q1       0.160000
     22 H5           8.3500    -1.8720    -1.3460 h1         1 1Q1       0.092700
     23 H6           6.5610     0.5610    -1.5660 hc         1 1Q1       0.079200
     24 H7           6.2590    -1.1120    -2.2130 hc         1 1Q1       0.079200
     25 H8           8.9910     0.6720    -1.6770 hc         1 1Q1       0.077700
     26 H9           8.6550     0.8540     0.1040 hc         1 1Q1       0.077700
     27 H10          9.8400    -1.1290     1.5710 hc         1 1Q1       0.072033
     28 H11         11.6270    -1.1030     1.2010 hc         1 1Q1       0.072033
     29 H12         10.7410     0.4490     1.5360 hc         1 1Q1       0.072033
@<TRIPOS>BOND
     1     1     2 1   
     2     1    18 1   
     3     2     3 ar  
     4     2     8 ar  
     5     3     4 1   
     6     3     5 ar  
     7     5     6 ar  
     8     5    19 1   
     9     6     7 ar  
    10     6     9 1   
    11     7     8 ar  
    12     7    20 1   
    13     8    21 1   
    14     9    10 2   
    15     9    13 1   
    16    10    11 1   
    17    11    12 1   
    18    12    13 1   
    19    12    14 1   
    20    12    22 1   
    21    13    23 1   
    22    13    24 1   
    23    14    15 1   
    24    14    25 1   
    25    14    26 1   
    26    15    16 2   
    27    15    17 1   
    28    17    27 1   
    29    17    28 1   
    30    17    29 1   
@<TRIPOS>SUBSTRUCTURE
     1 1Q1         1 TEMP              0 ****  ****    0 ROOT
