@<TRIPOS>MOLECULE
1Q1
   29    30     1     0     0
SMALL
bcc


@<TRIPOS>ATOM
      1 O1           0.0000     0.0000     0.0000 oh         1 1Q1      -0.486100
      2 C1           1.3590     0.0000     0.0000 ca         1 1Q1       0.108100
      3 C2           2.0540     0.0000     1.2050 ca         1 1Q1       0.076900
      4 F2           1.3760     0.0000     2.3740 f          1 1Q1      -0.117900
      5 C3           3.4330    -0.0010     1.2080 ca         1 1Q1      -0.085000
      6 C4           4.1310    -0.0010    -0.0020 ca         1 1Q1      -0.100900
      7 C5           3.4290    -0.0010    -1.2090 ca         1 1Q1      -0.083000
      8 C6           2.0510    -0.0060    -1.2040 ca         1 1Q1      -0.124000
      9 C7           5.6060    -0.0010    -0.0050 ce         1 1Q1       0.350900
     10 N8           6.3660    -0.0010     1.0400 n2         1 1Q1      -0.334200
     11 O9           7.7420     0.0070     0.7190 os         1 1Q1      -0.143300
     12 C10          7.8720    -0.4020    -0.6580 c3         1 1Q1       0.153100
     13 C11          6.4930    -0.0070    -1.2360 c3         1 1Q1      -0.121700
     14 C12          8.9970     0.3600    -1.3580 c3         1 1Q1      -0.127400
     15 C13         10.3280    -0.1370    -0.8560 c          1 1Q1       0.597100
     16 O13         10.3720    -1.0110    -0.0240 o          1 1Q1      -0.537100
     17 C14         11.6050     0.4560    -1.3930 c3         1 1Q1      -0.089100
     18 H1          -0.3140     0.8810    -0.1210 ho         1 1Q1       0.407000
     19 H2           3.9740    -0.0010     2.1470 ha         1 1Q1       0.142000
     20 H3           3.9670    -0.0030    -2.1490 ha         1 1Q1       0.110000
     21 H4           1.5070    -0.0060    -2.1400 ha         1 1Q1       0.119000
     22 H5           8.0220    -1.4730    -0.7250 h1         1 1Q1       0.048700
     23 H6           6.1520    -0.7470    -1.9500 hc         1 1Q1       0.038200
     24 H7           6.5340     0.9780    -1.6830 hc         1 1Q1       0.038200
     25 H8           8.9030     1.4180    -1.1460 hc         1 1Q1       0.044200
     26 H9           8.9320     0.1990    -2.4270 hc         1 1Q1       0.044200
     27 H10         11.6260     1.5190    -1.1850 hc         1 1Q1       0.025700
     28 H11         12.4530    -0.0210    -0.9170 hc         1 1Q1       0.025700
     29 H12         11.6550     0.2970    -2.4640 hc         1 1Q1       0.025700
@<TRIPOS>BOND
     1     1     2 1   
     2     1    18 1   
     3     2     3 ar  
     4     2     8 ar  
     5     3     4 1   
     6     3     5 ar  
     7     5     6 ar  
     8     5    19 1   
     9     6     7 ar  
    10     6     9 1   
    11     7     8 ar  
    12     7    20 1   
    13     8    21 1   
    14     9    10 2   
    15     9    13 1   
    16    10    11 1   
    17    11    12 1   
    18    12    13 1   
    19    12    14 1   
    20    12    22 1   
    21    13    23 1   
    22    13    24 1   
    23    14    15 1   
    24    14    25 1   
    25    14    26 1   
    26    15    16 2   
    27    15    17 1   
    28    17    27 1   
    29    17    28 1   
    30    17    29 1   
@<TRIPOS>SUBSTRUCTURE
     1 1Q1         1 TEMP              0 ****  ****    0 ROOT
