@<TRIPOS>MOLECULE
1Q2
   31    31     1     0     0
SMALL
bcc


@<TRIPOS>ATOM
      1 C1          -0.4120     0.0480     0.4490 ca         1 1Q2       0.104100
      2 O1          -1.4220     0.0640    -0.4800 oh         1 1Q2      -0.488100
      3 C2           0.9560     0.1120     0.0920 ca         1 1Q2       0.032900
      4 F2           1.3000     0.1850    -1.2190 f          1 1Q2      -0.144900
      5 C3           1.9410     0.0930     1.0910 ca         1 1Q2      -0.088000
      6 C4           1.5600     0.0280     2.4330 ca         1 1Q2      -0.147900
      7 C5           0.2050    -0.0440     2.7790 ca         1 1Q2      -0.097000
      8 C6          -0.7800    -0.0350     1.7990 ca         1 1Q2      -0.143000
      9 C7           2.6020     0.0260     3.4920 ce         1 1Q2       0.469900
     10 N8           3.5320    -0.8590     3.4770 n2         1 1Q2      -0.746100
     11 O9           4.2360     0.6150     5.9390 oh         1 1Q2      -0.614800
     12 C10          2.8230     0.7530     5.9060 c3         1 1Q2       0.154100
     13 C11          2.4490     1.1570     4.4820 c3         1 1Q2      -0.176700
     14 C12          2.3610     1.8220     6.8960 c3         1 1Q2      -0.226400
     15 C13          2.5500     1.4070     8.3270 c          1 1Q2       0.571100
     16 O13          3.3140     0.4910     8.6530 o          1 1Q2      -0.545100
     17 C14          1.7580     2.1840     9.3270 c3         1 1Q2      -0.203100
     18 HO1         -1.0180     0.0930    -1.3620 ho         1 1Q2       0.432000
     19 H3           3.0040     0.1220     0.8060 ha         1 1Q2       0.164000
     20 H5          -0.0870    -0.1200     3.8380 ha         1 1Q2       0.138000
     21 H6          -1.8470    -0.0960     2.0610 ha         1 1Q2       0.157000
     22 HN8          4.2050    -0.7900     4.2160 hn         1 1Q2       0.411400
     23 H10          2.3440    -0.2310     6.1730 h1         1 1Q2       0.048700
     24 H11          1.3910     1.5290     4.4800 hc         1 1Q2       0.070700
     25 H11A         3.1140     2.0010     4.1520 hc         1 1Q2       0.070700
     26 H12          1.2790     2.0560     6.7200 hc         1 1Q2       0.080200
     27 H12A         2.9520     2.7620     6.7260 hc         1 1Q2       0.080200
     28 H14          1.8520     3.2790     9.1250 hc         1 1Q2       0.068033
     29 H14A         2.1130     1.9720    10.3650 hc         1 1Q2       0.068033
     30 H14B         0.6810     1.8970     9.2500 hc         1 1Q2       0.068033
     31 HO9          4.4680     0.2730     6.8140 ho         1 1Q2       0.431000
@<TRIPOS>BOND
     1     1     2 1   
     2     1     3 ar  
     3     1     8 ar  
     4     2    18 1   
     5     3     4 1   
     6     3     5 ar  
     7     5     6 ar  
     8     5    19 1   
     9     6     7 ar  
    10     6     9 1   
    11     7     8 ar  
    12     7    20 1   
    13     8    21 1   
    14     9    10 2   
    15     9    13 1   
    16    10    22 1   
    17    11    12 1   
    18    11    31 1   
    19    12    13 1   
    20    12    14 1   
    21    12    23 1   
    22    13    24 1   
    23    13    25 1   
    24    14    15 1   
    25    14    26 1   
    26    14    27 1   
    27    15    16 2   
    28    15    17 1   
    29    17    28 1   
    30    17    29 1   
    31    17    30 1   
@<TRIPOS>SUBSTRUCTURE
     1 1Q2         1 TEMP              0 ****  ****    0 ROOT
