@<TRIPOS>MOLECULE
molecule
   31    31     1     0     0
SMALL
bcc


@<TRIPOS>ATOM
      1 C1           0.0000     0.0000     0.0000 ca         1 1Q2       0.080100
      2 O1          -0.6760     0.0060    -1.1780 oh         1 1Q2      -0.507100
      3 C2           1.3910     0.0000     0.0000 ca         1 1Q2       0.107900
      4 F2           2.0680     0.0000    -1.1700 f          1 1Q2      -0.127900
      5 C3           2.0820     0.0000     1.1950 ca         1 1Q2      -0.111000
      6 C4           1.3810    -0.0010     2.4030 ca         1 1Q2      -0.117900
      7 C5          -0.0170    -0.0020     2.3970 ca         1 1Q2      -0.116000
      8 C6          -0.6980    -0.0010     1.1990 ca         1 1Q2      -0.146000
      9 C7           2.1140    -0.0010     3.6820 ce         1 1Q2       0.484900
     10 N8           3.4080    -0.0010     3.6870 n2         1 1Q2      -0.785100
     11 O9           3.0890     1.2180     6.1470 oh         1 1Q2      -0.604800
     12 C10          2.3470    -0.0030     6.1520 c3         1 1Q2       0.149100
     13 C11          1.3560    -0.0020     4.9850 c3         1 1Q2      -0.180700
     14 C12          1.5820    -0.1300     7.4700 c3         1 1Q2      -0.205400
     15 C13          2.5610    -0.2530     8.6100 c          1 1Q2       0.572100
     16 O13          3.7480    -0.2420     8.3890 o          1 1Q2      -0.538100
     17 C14          2.0580    -0.3920    10.0240 c3         1 1Q2      -0.194100
     18 HO1         -0.9890    -0.8640    -1.3650 ho         1 1Q2       0.422000
     19 H3           3.1650     0.0000     1.1960 ha         1 1Q2       0.176000
     20 H5          -0.5640    -0.0030     3.3330 ha         1 1Q2       0.136000
     21 H6          -1.7820    -0.0010     1.1940 ha         1 1Q2       0.146000
     22 HN8          3.9060    -0.0010     4.5550 hn         1 1Q2       0.405400
     23 H10          3.0270    -0.8390     6.0470 h1         1 1Q2       0.048700
     24 H11          0.7340     0.8830     5.0410 hc         1 1Q2       0.070200
     25 H11A         0.7330    -0.8860     5.0400 hc         1 1Q2       0.070200
     26 H12          0.9660     0.7500     7.6170 hc         1 1Q2       0.076200
     27 H12A         0.9520    -1.0100     7.4390 hc         1 1Q2       0.076200
     28 H14          1.4400    -1.2780    10.1020 hc         1 1Q2       0.063700
     29 H14A         2.9010    -0.4790    10.6990 hc         1 1Q2       0.063700
     30 H14B         1.4730     0.4810    10.2860 hc         1 1Q2       0.063700
     31 HO9          3.9920     1.0370     6.3480 ho         1 1Q2       0.422000
@<TRIPOS>BOND
     1     2     1 1   
     2     3     1 ar  
     3     1     8 ar  
     4     2    18 1   
     5     4     3 1   
     6     3     5 ar  
     7     5     6 ar  
     8     5    19 1   
     9     6     7 ar  
    10     6     9 1   
    11     8     7 ar  
    12     7    20 1   
    13     8    21 1   
    14    10     9 2   
    15     9    13 1   
    16    10    22 1   
    17    11    12 1   
    18    11    31 1   
    19    13    12 1   
    20    12    14 1   
    21    12    23 1   
    22    13    24 1   
    23    13    25 1   
    24    14    15 1   
    25    14    26 1   
    26    14    27 1   
    27    16    15 2   
    28    15    17 1   
    29    17    28 1   
    30    17    29 1   
    31    17    30 1   
@<TRIPOS>SUBSTRUCTURE
     1 1Q2         1 TEMP              0 ****  ****    0 ROOT
