@<TRIPOS>MOLECULE
1Q3
   39    42     1     0     0
SMALL
bcc


@<TRIPOS>ATOM
      1 C1          -0.5650    -0.5610    -0.0150 c3         1 1Q3      -0.129400
      2 C2           0.8610    -1.0160    -0.0390 c2         1 1Q3       0.491200
      3 N3           1.7400    -0.8800     0.8880 ne         1 1Q3      -0.627100
      4 C5           1.3940    -0.2230     2.1090 c          1 1Q3       0.584000
      5 O6           2.2780     0.1720     2.8720 o          1 1Q3      -0.454100
      6 C7          -0.0820    -0.0370     2.4070 ca         1 1Q3       0.383800
      7 C8          -1.0070    -0.1660     1.3420 ca         1 1Q3      -0.312900
      8 C9          -2.3840     0.0520     1.6600 ca         1 1Q3       0.632200
      9 N10         -2.7760     0.3460     2.9320 nb         1 1Q3      -0.721000
     10 C11         -1.8010     0.4210     3.8920 ca         1 1Q3       0.780500
     11 N12         -0.4540     0.2440     3.6700 nb         1 1Q3      -0.666000
     12 C13         -2.2150     0.7270     5.2490 cc         1 1Q3      -0.350800
     13 C14         -1.4070     0.7610     6.4060 cd         1 1Q3      -0.070300
     14 N15         -2.2540     1.1010     7.4510 na         1 1Q3      -0.022600
     15 N17         -3.5200     1.2900     7.0500 nd         1 1Q3      -0.525800
     16 C18         -3.5470     1.0720     5.7140 cc         1 1Q3       0.359200
     17 N19         -3.3730    -0.1230     0.6430 nu         1 1Q3      -0.815900
     18 C20         -3.4740     0.9590    -0.3250 c3         1 1Q3       0.195500
     19 C21         -3.8460     0.4250    -1.7290 c3         1 1Q3      -0.082400
     20 C22         -5.3350     0.6560    -1.9280 c3         1 1Q3      -0.083400
     21 C23         -5.8170     1.5760    -0.8160 c3         1 1Q3      -0.076400
     22 C24         -4.5750     2.0250    -0.0400 c3         1 1Q3      -0.037600
     23 C25         -4.8570     2.2240     1.3630 c1         1 1Q3       0.200700
     24 N26         -5.1020     2.4030     2.4860 n1         1 1Q3      -0.342800
     25 H1          -0.6780     0.3010    -0.7310 hc         1 1Q3       0.089200
     26 H2          -1.2170    -1.3950    -0.4010 hc         1 1Q3       0.089200
     27 H3           1.1890    -1.5260    -0.9690 h4         1 1Q3       0.031800
     28 H4          -0.3390     0.5730     6.5320 h4         1 1Q3       0.199000
     29 H5          -2.0120     1.2170     8.4070 hn         1 1Q3       0.324700
     30 H6          -4.4540     1.1660     5.1120 h4         1 1Q3       0.069100
     31 H7          -4.2750    -0.3510     1.0250 hn         1 1Q3       0.404800
     32 H8          -2.4770     1.4830    -0.3810 h1         1 1Q3       0.066700
     33 H9          -3.2570     1.0000    -2.4870 hc         1 1Q3       0.057200
     34 H10         -3.5850    -0.6560    -1.8470 hc         1 1Q3       0.057200
     35 H11         -5.8910    -0.3150    -1.8930 hc         1 1Q3       0.051200
     36 H12         -5.5290     1.1130    -2.9300 hc         1 1Q3       0.051200
     37 H13         -6.3570     2.4640    -1.2280 hc         1 1Q3       0.058200
     38 H14         -6.5270     1.0340    -0.1410 hc         1 1Q3       0.058200
     39 H15         -4.2080     3.0050    -0.4640 hc         1 1Q3       0.086700
@<TRIPOS>BOND
     1     1     2 1   
     2     1     7 1   
     3     1    25 1   
     4     1    26 1   
     5     2     3 2   
     6     2    27 1   
     7     3     4 1   
     8     4     5 2   
     9     4     6 1   
    10     6     7 ar  
    11     6    11 ar  
    12     7     8 ar  
    13     8     9 ar  
    14     8    17 1   
    15     9    10 ar  
    16    10    11 ar  
    17    10    12 1   
    18    12    13 2   
    19    12    16 1   
    20    13    14 1   
    21    13    28 1   
    22    14    15 1   
    23    14    29 1   
    24    15    16 2   
    25    16    30 1   
    26    17    18 1   
    27    17    31 1   
    28    18    19 1   
    29    18    22 1   
    30    18    32 1   
    31    19    20 1   
    32    19    33 1   
    33    19    34 1   
    34    20    21 1   
    35    20    35 1   
    36    20    36 1   
    37    21    22 1   
    38    21    37 1   
    39    21    38 1   
    40    22    23 1   
    41    22    39 1   
    42    23    24 3   
@<TRIPOS>SUBSTRUCTURE
     1 1Q3         1 TEMP              0 ****  ****    0 ROOT
