@<TRIPOS>MOLECULE
molecule
   39    42     1     0     0
SMALL
bcc


@<TRIPOS>ATOM
      1 C1           0.0000     0.0000     0.0000 c3         1 1Q3      -0.187400
      2 C2           1.5140     0.0000     0.0000 c2         1 1Q3       0.557200
      3 N3           2.1660     0.0000     1.1150 ne         1 1Q3      -0.664100
      4 C5           1.5850    -0.0010     2.3240 c          1 1Q3       0.613000
      5 O6           2.2860    -0.0020     3.3160 o          1 1Q3      -0.457100
      6 C7           0.1130    -0.0010     2.4810 ca         1 1Q3       0.416800
      7 C8          -0.6870    -0.0010     1.3420 ca         1 1Q3      -0.355900
      8 C9          -2.0700     0.0000     1.4790 ca         1 1Q3       0.750200
      9 N10         -2.5830    -0.0000     2.7070 nb         1 1Q3      -0.798000
     10 C11         -1.7930    -0.0010     3.7740 ca         1 1Q3       0.820500
     11 N12         -0.4700    -0.0020     3.6750 nb         1 1Q3      -0.720000
     12 C13         -2.4100    -0.0010     5.1210 cd         1 1Q3      -0.391800
     13 C14         -1.7450     0.0030     6.3140 cc         1 1Q3      -0.047300
     14 N15         -2.6680     0.0060     7.2950 na         1 1Q3      -0.043600
     15 N17         -3.9370     0.0050     6.7030 nc         1 1Q3      -0.506800
     16 C18         -3.7900    -0.0000     5.4050 cd         1 1Q3       0.363200
     17 N19         -2.8940     0.0020     0.3650 nu         1 1Q3      -0.889900
     18 C20         -4.3500     0.0030     0.5310 c3         1 1Q3       0.212500
     19 C21         -4.8680     1.4520     0.6470 c3         1 1Q3      -0.107400
     20 C22         -5.3030     1.8150    -0.7940 c3         1 1Q3      -0.075400
     21 C23         -5.9250     0.4930    -1.3080 c3         1 1Q3      -0.149400
     22 C24         -5.0220    -0.6070    -0.7110 c3         1 1Q3      -0.001600
     23 C25         -4.0000    -1.0060    -1.6920 c1         1 1Q3       0.228700
     24 N26         -3.1970    -1.3110    -2.4360 n1         1 1Q3      -0.384800
     25 H1          -0.5890     0.5750    -0.7050 hc         1 1Q3       0.077700
     26 H2          -0.0710    -0.8490    -0.6690 hc         1 1Q3       0.077700
     27 H3           1.9000     0.2430    -0.9830 h4         1 1Q3       0.044800
     28 H4          -0.7330    -0.3480     6.4720 h4         1 1Q3       0.193000
     29 H5          -2.5200    -0.0380     8.2840 hn         1 1Q3       0.336700
     30 H6          -4.3480     0.3380     4.5410 h4         1 1Q3       0.074100
     31 H7          -2.7790     0.4050    -0.5440 hn         1 1Q3       0.447800
     32 H8          -4.6280    -0.5600     1.4140 h1         1 1Q3       0.098700
     33 H9          -5.1440     1.8020     1.6340 hc         1 1Q3       0.084700
     34 H10         -4.0510     1.9800     0.1700 hc         1 1Q3       0.084700
     35 H11         -5.9120     2.5350    -1.3280 hc         1 1Q3       0.050200
     36 H12         -4.6140     1.8340    -1.6290 hc         1 1Q3       0.050200
     37 H13         -6.9820     0.4330    -1.0800 hc         1 1Q3       0.052200
     38 H14         -6.2950     0.2980    -2.3070 hc         1 1Q3       0.052200
     39 H15         -5.6220    -1.4620    -0.4240 hc         1 1Q3       0.090700
@<TRIPOS>BOND
     1    14    13 1
     2    14    15 1
     3    13    12 2
     4    15    16 2
     5    12    16 1
     6    12    10 1
     7    11    10 ar
     8    11     6 ar
     9    10     9 ar
    10     5     4 2
    11     4     6 1
    12     4     3 1
    13     6     7 ar
    14     9     8 ar
    15     8     7 ar
    16     8    17 1
    17     3     2 2
    18     7     1 1
    19    17    18 1
    20     2     1 1
    21    19    18 1
    22    19    20 1
    23    18    22 1
    24    20    21 1
    25    21    22 1
    26    22    23 1
    27    23    24 3
    28     1    25 1
    29     1    26 1
    30     2    27 1
    31    13    28 1
    32    14    29 1
    33    16    30 1
    34    17    31 1
    35    18    32 1
    36    19    33 1
    37    19    34 1
    38    20    35 1
    39    20    36 1
    40    21    37 1
    41    21    38 1
    42    22    39 1
@<TRIPOS>SUBSTRUCTURE
     1 1Q3         1 TEMP              0 ****  ****    0 ROOT
