@<TRIPOS>MOLECULE
1Q4
   34    36     1     0     0
SMALL
bcc


@<TRIPOS>ATOM
      1 C1           0.0000     0.0000     0.0000 cc         1 1Q4      -0.156200
      2 C2           1.3460     0.0000     0.0000 cd         1 1Q4      -0.152400
      3 N3           2.0740     0.0000     1.1530 ns         1 1Q4       0.037900
      4 C5           1.4960     0.0000     2.3710 c          1 1Q4       0.486000
      5 O6           2.1810    -0.0040     3.3780 o          1 1Q4      -0.640500
      6 C7           0.0300     0.0020     2.4670 ca         1 1Q4       0.389800
      7 C8          -0.7140     0.0070     1.2720 ca         1 1Q4      -0.316400
      8 C9          -2.1230     0.0080     1.3580 ca         1 1Q4       0.549200
      9 N10         -2.6730     0.0030     2.5660 nb         1 1Q4      -0.697000
     10 C11         -1.9310    -0.0010     3.6600 ca         1 1Q4       0.657900
     11 N12         -0.6150     0.0020     3.6310 nb         1 1Q4      -0.605000
     12 N13         -2.9060     0.0140     0.2200 nu         1 1Q4      -0.482900
     13 C14         -4.3670     0.0140     0.3350 c3         1 1Q4       0.129500
     14 C15         -4.9780     0.6300    -0.9250 c3         1 1Q4      -0.038900
     15 C16         -6.5030     0.6310    -0.8040 c3         1 1Q4      -0.017400
     16 C17         -7.0030    -0.8060    -0.6440 c3         1 1Q4      -0.028400
     17 C18         -6.3920    -1.4220     0.6160 c3         1 1Q4      -0.017400
     18 C19         -4.8670    -1.4220     0.4950 c3         1 1Q4      -0.038900
     19 H1          -0.5470     0.0000    -0.9350 ha         1 1Q4       0.117000
     20 H3           1.8680    -0.0000    -0.9490 h4         1 1Q4       0.120000
     21 H4          -2.4270    -0.0040     4.6230 h5         1 1Q4      -0.001900
     22 H5          -2.4760     0.0380    -0.6830 hn         1 1Q4       0.298800
     23 H6          -4.6650     0.5950     1.1990 h1         1 1Q4       0.060700
     24 H7          -4.6250     1.6490    -1.0350 hc         1 1Q4       0.019950
     25 H8          -4.6860     0.0460    -1.7890 hc         1 1Q4       0.019950
     26 H9          -6.7950     1.2120     0.0630 hc         1 1Q4       0.017200
     27 H10         -6.9340     1.0650    -1.6980 hc         1 1Q4       0.017200
     28 H11         -8.0830    -0.8030    -0.5560 hc         1 1Q4       0.014700
     29 H12         -6.7070    -1.3880    -1.5090 hc         1 1Q4       0.014700
     30 H13         -6.6840    -0.8390     1.4810 hc         1 1Q4       0.017200
     31 H14         -6.7440    -2.4410     0.7260 hc         1 1Q4       0.017200
     32 H15         -4.4350    -1.8560     1.3890 hc         1 1Q4       0.019950
     33 H16         -4.5750    -2.0030    -0.3710 hc         1 1Q4       0.019950
     34 H2           3.0730    -0.0000     1.0930 hn         1 1Q4       0.171500
@<TRIPOS>BOND
     1     1     2 2   
     2     1     7 1   
     3     1    19 1   
     4     2     3 1   
     5     2    20 1   
     6     3     4 1   
     7     3    34 1   
     8     4     5 2   
     9     4     6 1   
    10     6     7 ar  
    11     6    11 ar  
    12     7     8 ar  
    13     8     9 ar  
    14     8    12 1   
    15     9    10 ar  
    16    10    11 ar  
    17    10    21 1   
    18    12    13 1   
    19    12    22 1   
    20    13    14 1   
    21    13    18 1   
    22    13    23 1   
    23    14    15 1   
    24    14    24 1   
    25    14    25 1   
    26    15    16 1   
    27    15    26 1   
    28    15    27 1   
    29    16    17 1   
    30    16    28 1   
    31    16    29 1   
    32    17    18 1   
    33    17    30 1   
    34    17    31 1   
    35    18    32 1   
    36    18    33 1   
@<TRIPOS>SUBSTRUCTURE
     1 1Q4         1 TEMP              0 ****  ****    0 ROOT
