@<TRIPOS>MOLECULE
1Q4
   34    36     1     0     0
SMALL
bcc


@<TRIPOS>ATOM
      1 C1           0.0080    -0.1480     0.0460 cc         1 1Q4      -0.201200
      2 C2           1.3710    -0.0830     0.0320 cd         1 1Q4      -0.002400
      3 N3           2.1150     0.0800     1.1800 ns         1 1Q4      -0.456100
      4 C5           1.5230     0.1740     2.4470 c          1 1Q4       0.593000
      5 O6           2.2670     0.3150     3.4310 o          1 1Q4      -0.588500
      6 C7           0.0290     0.0980     2.4940 ca         1 1Q4       0.397800
      7 C8          -0.7010    -0.0510     1.2880 ca         1 1Q4      -0.262400
      8 C9          -2.1510    -0.1060     1.4040 ca         1 1Q4       0.678200
      9 N10         -2.7450    -0.0120     2.6310 nb         1 1Q4      -0.748000
     10 C11         -1.9190     0.1130     3.7040 ca         1 1Q4       0.651900
     11 N12         -0.5730     0.1780     3.7150 nb         1 1Q4      -0.669000
     12 N13         -2.9180    -0.3340     0.2630 nu         1 1Q4      -0.832900
     13 C14         -4.3670    -0.2080     0.2730 c3         1 1Q4       0.208500
     14 C15         -4.8660     1.2460     0.3290 c3         1 1Q4      -0.092900
     15 C16         -6.3780     1.2840     0.3850 c3         1 1Q4      -0.074900
     16 C17         -6.9970     0.5660    -0.7960 c3         1 1Q4      -0.080400
     17 C18         -6.4830    -0.8550    -0.9000 c3         1 1Q4      -0.074900
     18 C19         -4.9710    -0.8950    -0.9670 c3         1 1Q4      -0.092900
     19 H1          -0.5230    -0.2950    -0.9020 ha         1 1Q4       0.145000
     20 H3           1.9510    -0.1570    -0.9060 h4         1 1Q4       0.153000
     21 H4          -2.4260     0.1760     4.6910 h5         1 1Q4       0.058100
     22 H5          -2.4910    -0.0350    -0.5870 hn         1 1Q4       0.413800
     23 H6          -4.7550    -0.7490     1.1880 h1         1 1Q4       0.088700
     24 H7          -4.5090     1.8040    -0.5760 hc         1 1Q4       0.046700
     25 H8          -4.4490     1.7570     1.2340 hc         1 1Q4       0.046700
     26 H9          -6.7210     2.3510     0.3980 hc         1 1Q4       0.044950
     27 H10         -6.7280     0.8070     1.3390 hc         1 1Q4       0.044950
     28 H11         -6.7550     1.1220    -1.7400 hc         1 1Q4       0.041700
     29 H12         -8.1120     0.5550    -0.6880 hc         1 1Q4       0.041700
     30 H13         -6.9050    -1.3410    -1.8180 hc         1 1Q4       0.044950
     31 H14         -6.8350    -1.4460    -0.0130 hc         1 1Q4       0.044950
     32 H15         -4.6280    -1.9620    -1.0170 hc         1 1Q4       0.046700
     33 H16         -4.6220    -0.3780    -1.8980 hc         1 1Q4       0.046700
     34 H2           3.1080     0.1230     1.1250 hn         1 1Q4       0.336500
@<TRIPOS>BOND
     1     1     2 2   
     2     1     7 1   
     3     1    19 1   
     4     2     3 1   
     5     2    20 1   
     6     3     4 1   
     7     3    34 1   
     8     4     5 2   
     9     4     6 1   
    10     6     7 ar  
    11     6    11 ar  
    12     7     8 ar  
    13     8     9 ar  
    14     8    12 1   
    15     9    10 ar  
    16    10    11 ar  
    17    10    21 1   
    18    12    13 1   
    19    12    22 1   
    20    13    14 1   
    21    13    18 1   
    22    13    23 1   
    23    14    15 1   
    24    14    24 1   
    25    14    25 1   
    26    15    16 1   
    27    15    26 1   
    28    15    27 1   
    29    16    17 1   
    30    16    28 1   
    31    16    29 1   
    32    17    18 1   
    33    17    30 1   
    34    17    31 1   
    35    18    32 1   
    36    18    33 1   
@<TRIPOS>SUBSTRUCTURE
     1 1Q4         1 TEMP              0 ****  ****    0 ROOT
