@<TRIPOS>MOLECULE
molecule
   34    36     1     0     0
SMALL
bcc


@<TRIPOS>ATOM
      1 C1           0.0000     0.0000     0.0000 cc         1 1Q4      -0.193200
      2 C2           1.3460     0.0000     0.0000 cd         1 1Q4      -0.016400
      3 N3           2.0740     0.0000     1.1530 ns         1 1Q4      -0.435100
      4 C5           1.4960     0.0000     2.3710 c          1 1Q4       0.597000
      5 O6           2.1810    -0.0040     3.3780 o          1 1Q4      -0.593500
      6 C7           0.0300     0.0020     2.4670 ca         1 1Q4       0.433800
      7 C8          -0.7140     0.0070     1.2720 ca         1 1Q4      -0.315400
      8 C9          -2.1230     0.0080     1.3580 ca         1 1Q4       0.734200
      9 N10         -2.6730     0.0030     2.5660 nb         1 1Q4      -0.803000
     10 C11         -1.9310    -0.0010     3.6600 ca         1 1Q4       0.710900
     11 N12         -0.6150     0.0020     3.6310 nb         1 1Q4      -0.719000
     12 N13         -2.9060     0.0140     0.2200 nu         1 1Q4      -0.897900
     13 C14         -4.3670     0.0140     0.3350 c3         1 1Q4       0.242500
     14 C15         -4.9780     0.6300    -0.9250 c3         1 1Q4      -0.094400
     15 C16         -6.5030     0.6310    -0.8040 c3         1 1Q4      -0.076400
     16 C17         -7.0030    -0.8060    -0.6440 c3         1 1Q4      -0.083400
     17 C18         -6.3920    -1.4220     0.6160 c3         1 1Q4      -0.076400
     18 C19         -4.8670    -1.4220     0.4950 c3         1 1Q4      -0.094400
     19 H1          -0.5470     0.0000    -0.9350 ha         1 1Q4       0.139000
     20 H3           1.8680    -0.0000    -0.9490 h4         1 1Q4       0.150000
     21 H4          -2.4270    -0.0040     4.6230 h5         1 1Q4       0.062100
     22 H5          -2.4760     0.0380    -0.6830 hn         1 1Q4       0.447800
     23 H6          -4.6650     0.5950     1.1990 h1         1 1Q4       0.082700
     24 H7          -4.6250     1.6490    -1.0350 hc         1 1Q4       0.047450
     25 H8          -4.6860     0.0460    -1.7890 hc         1 1Q4       0.047450
     26 H9          -6.7950     1.2120     0.0630 hc         1 1Q4       0.045700
     27 H10         -6.9340     1.0650    -1.6980 hc         1 1Q4       0.045700
     28 H11         -8.0830    -0.8030    -0.5560 hc         1 1Q4       0.042700
     29 H12         -6.7070    -1.3880    -1.5090 hc         1 1Q4       0.042700
     30 H13         -6.6840    -0.8390     1.4810 hc         1 1Q4       0.045700
     31 H14         -6.7440    -2.4410     0.7260 hc         1 1Q4       0.045700
     32 H15         -4.4350    -1.8560     1.3890 hc         1 1Q4       0.047450
     33 H16         -4.5750    -2.0030    -0.3710 hc         1 1Q4       0.047450
     34 H2           3.0730    -0.0000     1.0930 hn         1 1Q4       0.339500
@<TRIPOS>BOND
     1     5     4 2   
     2    11    10 ar  
     3    11     6 ar  
     4    10     9 ar  
     5     4     6 1   
     6     4     3 1   
     7     6     7 ar  
     8     9     8 ar  
     9     3     2 1   
    10     7     8 ar  
    11     7     1 1   
    12     8    12 1   
    13    18    17 1   
    14    18    13 1   
    15     2     1 2   
    16    17    16 1   
    17    13    12 1   
    18    13    14 1   
    19    14    15 1   
    20    16    15 1   
    21     1    19 1   
    22     2    20 1   
    23    10    21 1   
    24    12    22 1   
    25    13    23 1   
    26    14    24 1   
    27    14    25 1   
    28    15    26 1   
    29    15    27 1   
    30    16    28 1   
    31    16    29 1   
    32    17    30 1   
    33    17    31 1   
    34    18    32 1   
    35    18    33 1   
    36     3    34 1   
@<TRIPOS>SUBSTRUCTURE
     1 1Q4         1 TEMP              0 ****  ****    0 ROOT
