@<TRIPOS>MOLECULE
1Q5
   54    55     1     0     0
SMALL
bcc


@<TRIPOS>ATOM
      1 C18          0.0640     0.8060    -0.0100 c3         1 1Q5      -0.148400
      2 C20          3.7700    -0.5030     3.5610 c3         1 1Q5       0.204500
      3 C1           3.3630    -0.0860    -3.6530 ca         1 1Q5       0.097100
      4 C17          5.6660    -0.5100    -0.2210 c3         1 1Q5      -0.036800
      5 C16          4.2340    -0.1660    -0.1080 ca         1 1Q5      -0.282600
      6 C15          3.6040     0.0360     1.1500 ca         1 1Q5       0.215600
      7 C14          2.2230     0.3570     1.1590 ca         1 1Q5      -0.334300
      8 C13          1.5220     0.4660    -0.0500 ca         1 1Q5       0.466600
      9 C11          3.4220    -0.0150    -1.2630 ca         1 1Q5       0.655600
     10 C6           2.7860    -1.2340    -4.2230 ca         1 1Q5      -0.057800
     11 C8           2.8330    -2.5390    -3.5260 c3         1 1Q5      -0.050300
     12 C5           2.1800    -1.1200    -5.4770 ca         1 1Q5      -0.133000
     13 C4           2.1400     0.1060    -6.1470 ca         1 1Q5      -0.070300
     14 C3           2.7160     1.2360    -5.5580 ca         1 1Q5      -0.133000
     15 C2           3.3310     1.1580    -4.3050 ca         1 1Q5      -0.057800
     16 C24          2.8100     1.6790     4.4090 c3         1 1Q5      -0.096100
     17 C23          3.7800     0.5600     4.6760 c3         1 1Q5      -0.093400
     18 C21          4.4980    -1.7540     4.0900 c3         1 1Q5      -0.093400
     19 C22          4.4350    -2.9140     3.1340 c3         1 1Q5      -0.096100
     20 N12          2.1030     0.2840    -1.2620 nb         1 1Q5      -0.741000
     21 O10          4.0950    -0.2120    -2.4670 os         1 1Q5      -0.377400
     22 H1          -0.5340     0.0310    -0.5500 hc         1 1Q5       0.053367
     23 H2          -0.1140     1.7940    -0.5040 hc         1 1Q5       0.053367
     24 H3          -0.2910     0.8630     1.0470 hc         1 1Q5       0.053367
     25 H4           2.6930    -0.7950     3.3740 h1         1 1Q5       0.060700
     26 H5           5.9550    -0.7040    -1.2840 hc         1 1Q5       0.044700
     27 H6           5.8980    -1.4330     0.3710 hc         1 1Q5       0.044700
     28 H7           6.3040     0.3270     0.1610 hc         1 1Q5       0.044700
     29 H8           1.7000     0.5490     2.1070 ha         1 1Q5       0.146000
     30 H9           1.5320    -0.7550    -8.0240 hc         1 1Q5       0.043367
     31 H10          1.9510     1.0090    -8.0910 hc         1 1Q5       0.043367
     32 H11          0.3960     0.4740    -7.3290 hc         1 1Q5       0.043367
     33 H12          2.0230    -3.2180    -3.8890 hc         1 1Q5       0.047700
     34 H13          3.8200    -3.0330    -3.7090 hc         1 1Q5       0.047700
     35 H14          2.7150    -2.3970    -2.4220 hc         1 1Q5       0.047700
     36 H15          5.0510     2.3560    -3.8850 hc         1 1Q5       0.047700
     37 H16          3.7880     2.3560    -2.5860 hc         1 1Q5       0.047700
     38 H17          3.5140     3.2940    -4.1190 hc         1 1Q5       0.047700
     39 H18          1.7250    -2.0090    -5.9390 ha         1 1Q5       0.132500
     40 H19          2.6840     2.2010    -6.0840 ha         1 1Q5       0.132500
     41 H20          2.8450     2.4230     5.2420 hc         1 1Q5       0.037533
     42 H21          1.7660     1.2880     4.3320 hc         1 1Q5       0.037533
     43 H22          3.0580     2.2060     3.4550 hc         1 1Q5       0.037533
     44 H23          3.5060     0.0520     5.6380 hc         1 1Q5       0.046200
     45 H24          4.8150     0.9730     4.7980 hc         1 1Q5       0.046200
     46 H25          4.0120    -2.0460     5.0590 hc         1 1Q5       0.046200
     47 H26          5.5670    -1.5020     4.3180 hc         1 1Q5       0.046200
     48 H27          4.8800    -3.8240     3.6060 hc         1 1Q5       0.037533
     49 H28          5.0020    -2.6990     2.1950 hc         1 1Q5       0.037533
     50 H29          3.3770    -3.1430     2.8570 hc         1 1Q5       0.037533
     51 H30          5.3050    -0.2530     2.2070 hn         1 1Q5       0.407800
     52 N19          4.3490     0.0090     2.3290 nu         1 1Q5      -0.735600
     53 C7           1.4760     0.2130    -7.4670 c3         1 1Q5      -0.052800
     54 C9           3.9480     2.3570    -3.6930 c3         1 1Q5      -0.050300
@<TRIPOS>BOND
     1     1     8 1   
     2     1    22 1   
     3     1    23 1   
     4     1    24 1   
     5     2    17 1   
     6     2    18 1   
     7     2    25 1   
     8     2    52 1   
     9     3    10 ar  
    10     3    15 ar  
    11     3    21 1   
    12     4     5 1   
    13     4    26 1   
    14     4    27 1   
    15     4    28 1   
    16     5     6 ar  
    17     5     9 ar  
    18     6     7 ar  
    19     6    52 1   
    20     7     8 ar  
    21     7    29 1   
    22     8    20 ar  
    23     9    20 ar  
    24     9    21 1   
    25    10    11 1   
    26    10    12 ar  
    27    11    33 1   
    28    11    34 1   
    29    11    35 1   
    30    12    13 ar  
    31    12    39 1   
    32    13    14 ar  
    33    13    53 1   
    34    14    15 ar  
    35    14    40 1   
    36    15    54 1   
    37    16    17 1   
    38    16    41 1   
    39    16    42 1   
    40    16    43 1   
    41    17    44 1   
    42    17    45 1   
    43    18    19 1   
    44    18    46 1   
    45    18    47 1   
    46    19    48 1   
    47    19    49 1   
    48    19    50 1   
    49    30    53 1   
    50    31    53 1   
    51    32    53 1   
    52    36    54 1   
    53    37    54 1   
    54    38    54 1   
    55    51    52 1   
@<TRIPOS>SUBSTRUCTURE
     1 1Q5         1 TEMP              0 ****  ****    0 ROOT
