@<TRIPOS>MOLECULE
molecule
   54    55     1     0     0
SMALL
bcc


@<TRIPOS>ATOM
      1 C18          0.0000     0.0000     0.0000 c3         1 1Q5      -0.140400
      2 C20          3.5630    -0.0010     3.6970 c3         1 1Q5       0.238500
      3 C1           3.3650     0.0160    -3.4940 ca         1 1Q5       0.105100
      4 C17          5.7420     0.0000    -0.0520 c3         1 1Q5      -0.029800
      5 C16          4.2360     0.0000     0.0000 ca         1 1Q5      -0.311600
      6 C15          3.5720     0.0000     1.2230 ca         1 1Q5       0.257600
      7 C14          2.1760    -0.0000     1.2190 ca         1 1Q5      -0.369300
      8 C13          1.5070    -0.0000     0.0130 ca         1 1Q5       0.493600
      9 C11          3.4920     0.0050    -1.1700 ca         1 1Q5       0.692600
     10 C6           2.9700    -1.1830    -4.0720 ca         1 1Q5      -0.066300
     11 C8           3.3880    -2.4920    -3.4510 c3         1 1Q5      -0.047800
     12 C5           2.1960    -1.1760    -5.2150 ca         1 1Q5      -0.129500
     13 C4           1.8130     0.0250    -5.7840 ca         1 1Q5      -0.074300
     14 C3           2.2050     1.2200    -5.2110 ca         1 1Q5      -0.129500
     15 C2           2.9750     1.2190    -4.0640 ca         1 1Q5      -0.066300
     16 C24          4.7090    -2.0840     4.4630 c3         1 1Q5      -0.097100
     17 C23          4.4520    -0.6110     4.7830 c3         1 1Q5      -0.099400
     18 C21          3.2040     1.4360     4.0810 c3         1 1Q5      -0.099400
     19 C22          2.2160     2.0040     3.0610 c3         1 1Q5      -0.097100
     20 N12          2.1690    -0.0000    -1.1290 nb         1 1Q5      -0.794000
     21 O10          4.1270     0.0100    -2.3690 os         1 1Q5      -0.359400
     22 H1          -0.3680    -0.6380     0.7950 hc         1 1Q5       0.051700
     23 H2          -0.3620     1.0100     0.1500 hc         1 1Q5       0.051700
     24 H3          -0.3530    -0.3720    -0.9540 hc         1 1Q5       0.051700
     25 H4           2.6560    -0.5860     3.6010 h1         1 1Q5       0.063700
     26 H5           6.1210     0.8770     0.4600 hc         1 1Q5       0.041367
     27 H6           6.0680     0.0160    -1.0850 hc         1 1Q5       0.041367
     28 H7           6.1200    -0.8920     0.4330 hc         1 1Q5       0.041367
     29 H8           1.6240    -0.0000     2.1510 ha         1 1Q5       0.147000
     30 H9           1.1160    -0.8970    -7.5720 hc         1 1Q5       0.042033
     31 H10         -0.0760     0.1290    -6.7610 hc         1 1Q5       0.042033
     32 H11          1.2580     0.8640    -7.6600 hc         1 1Q5       0.042033
     33 H12          3.3450    -3.2760    -4.1980 hc         1 1Q5       0.046867
     34 H13          2.7180    -2.7350    -2.6350 hc         1 1Q5       0.046867
     35 H14          4.4000    -2.4070    -3.0750 hc         1 1Q5       0.046867
     36 H15          2.7190     2.7710    -2.6300 hc         1 1Q5       0.046867
     37 H16          3.3750     3.3060    -4.1830 hc         1 1Q5       0.046867
     38 H17          4.4030     2.4250    -3.0450 hc         1 1Q5       0.046867
     39 H18          1.8880    -2.1110    -5.6660 ha         1 1Q5       0.132000
     40 H19          1.9010     2.1590    -5.6570 ha         1 1Q5       0.132000
     41 H20          5.0190    -2.6010     5.3630 hc         1 1Q5       0.038867
     42 H21          3.8000    -2.5360     4.0830 hc         1 1Q5       0.038867
     43 H22          5.4900    -2.1610     3.7160 hc         1 1Q5       0.038867
     44 H23          3.9560    -0.5320     5.7430 hc         1 1Q5       0.047450
     45 H24          5.3950    -0.0800     4.8190 hc         1 1Q5       0.047450
     46 H25          2.7520     1.4450     5.0650 hc         1 1Q5       0.047450
     47 H26          4.1020     2.0420     4.0900 hc         1 1Q5       0.047450
     48 H27          2.0350     3.0500     3.2770 hc         1 1Q5       0.038867
     49 H28          2.6290     1.9080     2.0640 hc         1 1Q5       0.038867
     50 H29          1.2820     1.4580     3.1190 hc         1 1Q5       0.038867
     51 H30          5.2820     0.0080     2.4090 hn         1 1Q5       0.443800
     52 N19          4.2810    -0.0010     2.4200 nu         1 1Q5      -0.806600
     53 C7           0.9690     0.0310    -7.0320 c3         1 1Q5      -0.047800
     54 C9           3.3980     2.5220    -3.4360 c3         1 1Q5      -0.047800
@<TRIPOS>BOND
     1    11    10 1   
     2     1     8 1   
     3    12    10 ar  
     4    12    13 ar  
     5    53    13 1   
     6    10     3 ar  
     7    13    14 ar  
     8     8    20 ar  
     9     8     7 ar  
    10    19    18 1   
    11    20     9 ar  
    12     7     6 ar  
    13     3    21 1   
    14     3    15 ar  
    15    18     2 1   
    16    14    15 ar  
    17     9    21 1   
    18     9     5 ar  
    19     2    52 1   
    20     2    17 1   
    21     6     5 ar  
    22     6    52 1   
    23    15    54 1   
    24     5     4 1   
    25    17    16 1   
    26     1    22 1   
    27     1    23 1   
    28     1    24 1   
    29     2    25 1   
    30     4    26 1   
    31     4    27 1   
    32     4    28 1   
    33     7    29 1   
    34    53    30 1   
    35    53    31 1   
    36    53    32 1   
    37    11    33 1   
    38    11    34 1   
    39    11    35 1   
    40    54    36 1   
    41    54    37 1   
    42    54    38 1   
    43    12    39 1   
    44    14    40 1   
    45    16    41 1   
    46    16    42 1   
    47    16    43 1   
    48    17    44 1   
    49    17    45 1   
    50    18    46 1   
    51    18    47 1   
    52    19    48 1   
    53    19    49 1   
    54    19    50 1   
    55    52    51 1   
@<TRIPOS>SUBSTRUCTURE
     1 1Q5         1 TEMP              0 ****  ****    0 ROOT
