@<TRIPOS>MOLECULE
1Q6
   50    51     1     0     0
SMALL
bcc


@<TRIPOS>ATOM
      1 N22          0.0000     0.0000     0.0000 nv         1 1Q6      -0.657500
      2 C22          1.3890     0.0000     0.0000 ca         1 1Q6       0.517200
      3 C23          2.0790     0.0000     1.2080 ca         1 1Q6      -0.210300
      4 C24          3.4620     0.0010     1.1930 ca         1 1Q6      -0.043300
      5 C27          4.2470    -0.0000     2.4790 c3         1 1Q6       0.061200
      6 C25          4.1110     0.0010    -0.0350 ca         1 1Q6      -0.222300
      7 N21          2.0450    -0.0050    -1.1510 nb         1 1Q6      -0.585000
      8 C26          3.3640     0.0000    -1.1950 ca         1 1Q6       0.349600
      9 C28          4.0640     0.0010    -2.5300 c3         1 1Q6       0.176100
     10 O29          5.4780     0.0010    -2.3270 os         1 1Q6      -0.422600
     11 C11          6.2380    -0.1020    -3.5330 c3         1 1Q6       0.165100
     12 C12          7.5880     0.5920    -3.3450 c3         1 1Q6      -0.056200
     13 N13          7.3760     2.0310    -3.1400 nz         1 1Q6       0.086400
     14 C10          6.4650    -1.5780    -3.8670 c3         1 1Q6       0.196400
     15 O09          7.2780    -2.1760    -2.8560 os         1 1Q6      -0.423600
     16 C08          7.5510    -3.5610    -3.0740 c3         1 1Q6       0.176100
     17 C06          8.4100    -4.0860    -1.9530 ca         1 1Q6       0.410600
     18 C05          8.7920    -3.2400    -0.9330 ca         1 1Q6      -0.293300
     19 N01          8.7830    -5.3530    -1.9570 nb         1 1Q6      -0.651000
     20 C02          9.5370    -5.8570    -0.9930 ca         1 1Q6       0.523200
     21 N02          9.9070    -7.1970    -1.0360 nv         1 1Q6      -0.517500
     22 C03          9.9640    -5.0580     0.0640 ca         1 1Q6      -0.299300
     23 C04          9.5800    -3.7300     0.1000 ca         1 1Q6      -0.002300
     24 C07         10.0200    -2.8310     1.2270 c3         1 1Q6       0.062200
     25 H1          -0.5000     0.8670     0.0130 hn         1 1Q6       0.284300
     26 H2          -0.5000    -0.8660    -0.0360 hn         1 1Q6       0.284300
     27 H3           1.5480    -0.1770     2.1360 ha         1 1Q6       0.132000
     28 H4           5.0130     0.7640     2.4350 hc         1 1Q6       0.014700
     29 H5           3.5800     0.2040     3.3080 hc         1 1Q6       0.014700
     30 H6           4.7110    -0.9690     2.6180 hc         1 1Q6       0.014700
     31 H7           5.1940     0.0030    -0.0810 ha         1 1Q6       0.117000
     32 H8           3.7790    -0.8830    -3.0870 h1         1 1Q6       0.011200
     33 H9           3.7790     0.8860    -3.0870 h1         1 1Q6       0.011200
     34 H10          5.6980     0.3730    -4.3430 h1         1 1Q6       0.023700
     35 H11          8.0920     0.1750    -2.4810 hx         1 1Q6       0.099200
     36 H12          8.1990     0.4390    -4.2270 hx         1 1Q6       0.099200
     37 H13          6.8300     2.3980    -3.8940 hn         1 1Q6       0.223800
     38 H14          8.2610     2.4980    -3.1110 hn         1 1Q6       0.223800
     39 H16          6.9640    -1.6580    -4.8260 h1         1 1Q6       0.017200
     40 H17          5.5110    -2.0880    -3.9130 h1         1 1Q6       0.017200
     41 H18          6.6190    -4.1130    -3.1040 h1         1 1Q6       0.013200
     42 H19          8.0730    -3.6820    -4.0160 h1         1 1Q6       0.013200
     43 H20          8.4740    -2.2040    -0.9340 ha         1 1Q6       0.114000
     44 H21          9.6060    -7.7750    -1.7960 hn         1 1Q6       0.275300
     45 H22         10.4640    -7.5860    -0.3010 hn         1 1Q6       0.275300
     46 H23         10.5800    -5.4730     0.8530 ha         1 1Q6       0.126000
     47 H24          9.3990    -3.0110     2.0960 hc         1 1Q6       0.009700
     48 H25         11.0540    -3.0400     1.4730 hc         1 1Q6       0.009700
     49 H26          9.9230    -1.7960     0.9220 hc         1 1Q6       0.009700
     50 H133         6.8970     2.1770    -2.2740 hn         1 1Q6       0.223800
@<TRIPOS>BOND
     1     1     2 1   
     2     1    25 1   
     3     1    26 1   
     4     2     3 ar  
     5     2     7 ar  
     6     3     4 ar  
     7     3    27 1   
     8     4     5 1   
     9     4     6 ar  
    10     5    28 1   
    11     5    29 1   
    12     5    30 1   
    13     6     8 ar  
    14     6    31 1   
    15     7     8 ar  
    16     8     9 1   
    17     9    10 1   
    18     9    32 1   
    19     9    33 1   
    20    10    11 1   
    21    11    12 1   
    22    11    14 1   
    23    11    34 1   
    24    12    13 1   
    25    12    35 1   
    26    12    36 1   
    27    13    37 1   
    28    13    38 1   
    29    13    50 1   
    30    14    15 1   
    31    14    39 1   
    32    14    40 1   
    33    15    16 1   
    34    16    17 1   
    35    16    41 1   
    36    16    42 1   
    37    17    18 ar  
    38    17    19 ar  
    39    18    23 ar  
    40    18    43 1   
    41    19    20 ar  
    42    20    21 1   
    43    20    22 ar  
    44    21    44 1   
    45    21    45 1   
    46    22    23 ar  
    47    22    46 1   
    48    23    24 1   
    49    24    47 1   
    50    24    48 1   
    51    24    49 1   
@<TRIPOS>SUBSTRUCTURE
     1 1Q6         1 TEMP              0 ****  ****    0 ROOT
