@<TRIPOS>MOLECULE
1Q6
   50    51     1     0     0
SMALL
bcc


@<TRIPOS>ATOM
      1 N22          5.0040    -2.2840     1.6290 nv         1 1Q6      -0.927500
      2 C22          4.3020    -1.2900     0.9110 ca         1 1Q6       0.616200
      3 C23          3.9520    -0.0630     1.5470 ca         1 1Q6      -0.278300
      4 C24          3.3400     0.9400     0.7980 ca         1 1Q6       0.018700
      5 C27          2.9420     2.2200     1.4240 c3         1 1Q6      -0.074800
      6 C25          3.0920     0.7100    -0.5650 ca         1 1Q6      -0.264300
      7 N21          4.0550    -1.5130    -0.4170 nb         1 1Q6      -0.797000
      8 C26          3.4690    -0.5210    -1.1260 ca         1 1Q6       0.396600
      9 C28          3.1600    -0.7380    -2.5900 c3         1 1Q6       0.076100
     10 O29          4.0060    -1.6780    -3.2410 os         1 1Q6      -0.423600
     11 C11          5.3670    -1.2680    -3.3640 c3         1 1Q6       0.116100
     12 C12          6.2260    -2.5300    -3.1790 c3         1 1Q6       0.093800
     13 N13          5.9590    -3.2070    -1.8820 nz         1 1Q6      -0.828600
     14 C10          5.6070    -0.7130    -4.7740 c3         1 1Q6       0.109400
     15 O09          6.9770    -0.3300    -4.8210 os         1 1Q6      -0.416600
     16 C08          7.5560    -0.4090    -6.1170 c3         1 1Q6       0.081100
     17 C06          7.6880    -1.8180    -6.6510 ca         1 1Q6       0.391600
     18 C05          7.4390    -2.0210    -8.0200 ca         1 1Q6      -0.273300
     19 N01          8.0800    -2.8020    -5.8100 nb         1 1Q6      -0.745000
     20 C02          8.2310    -4.0590    -6.3310 ca         1 1Q6       0.612200
     21 N02          8.5540    -5.1170    -5.4540 nv         1 1Q6      -0.922500
     22 C03          7.9950    -4.3410    -7.7100 ca         1 1Q6      -0.283300
     23 C04          7.5970    -3.3070    -8.5550 ca         1 1Q6       0.006700
     24 C07          7.3600    -3.5530    -9.9950 c3         1 1Q6      -0.070800
     25 H1           5.0240    -2.1000     2.6110 hn         1 1Q6       0.399800
     26 H2           4.7160    -3.2190     1.4310 hn         1 1Q6       0.399800
     27 H3           4.1640     0.0940     2.6150 ha         1 1Q6       0.160000
     28 H4           3.1260     3.0760     0.7280 hc         1 1Q6       0.065700
     29 H5           3.5070     2.4030     2.3710 hc         1 1Q6       0.065700
     30 H6           1.8480     2.1970     1.6670 hc         1 1Q6       0.065700
     31 H7           2.6090     1.4820    -1.1790 ha         1 1Q6       0.159000
     32 H8           3.2010     0.2470    -3.1300 h1         1 1Q6       0.085200
     33 H9           2.1370    -1.1980    -2.6970 h1         1 1Q6       0.085200
     34 H10          5.6360    -0.4900    -2.5970 h1         1 1Q6       0.083700
     35 H11          5.9970    -3.2650    -4.0040 hx         1 1Q6       0.131700
     36 H12          7.3150    -2.2350    -3.2400 hx         1 1Q6       0.131700
     37 H13          6.4440    -4.1040    -1.8470 hn         1 1Q6       0.464133
     38 H14          4.9420    -3.3550    -1.7900 hn         1 1Q6       0.464133
     39 H16          4.9710     0.1980    -4.9320 h1         1 1Q6       0.062700
     40 H17          5.3600    -1.4830    -5.5490 h1         1 1Q6       0.062700
     41 H18          8.5780     0.0410    -5.9700 h1         1 1Q6       0.077200
     42 H19          6.9590     0.2110    -6.8370 h1         1 1Q6       0.077200
     43 H20          7.1310    -1.1860    -8.6640 ha         1 1Q6       0.153000
     44 H21          9.1130    -4.8520    -4.6710 hn         1 1Q6       0.397300
     45 H22          8.9270    -5.9090    -5.9340 hn         1 1Q6       0.397300
     46 H23          8.1230    -5.3590    -8.1030 ha         1 1Q6       0.154000
     47 H24          8.2700    -3.2640   -10.5810 hc         1 1Q6       0.060700
     48 H25          7.1450    -4.6320   -10.1930 hc         1 1Q6       0.060700
     49 H26          6.4990    -2.9440   -10.3660 hc         1 1Q6       0.060700
     50 H133         6.2670    -2.6200    -1.0990 hn         1 1Q6       0.464133
@<TRIPOS>BOND
     1     1     2 1   
     2     1    25 1   
     3     1    26 1   
     4     2     3 ar  
     5     2     7 ar  
     6     3     4 ar  
     7     3    27 1   
     8     4     5 1   
     9     4     6 ar  
    10     5    28 1   
    11     5    29 1   
    12     5    30 1   
    13     6     8 ar  
    14     6    31 1   
    15     7     8 ar  
    16     8     9 1   
    17     9    10 1   
    18     9    32 1   
    19     9    33 1   
    20    10    11 1   
    21    11    12 1   
    22    11    14 1   
    23    11    34 1   
    24    12    13 1   
    25    12    35 1   
    26    12    36 1   
    27    13    37 1   
    28    13    38 1   
    29    13    50 1   
    30    14    15 1   
    31    14    39 1   
    32    14    40 1   
    33    15    16 1   
    34    16    17 1   
    35    16    41 1   
    36    16    42 1   
    37    17    18 ar  
    38    17    19 ar  
    39    18    23 ar  
    40    18    43 1   
    41    19    20 ar  
    42    20    21 1   
    43    20    22 ar  
    44    21    44 1   
    45    21    45 1   
    46    22    23 ar  
    47    22    46 1   
    48    23    24 1   
    49    24    47 1   
    50    24    48 1   
    51    24    49 1   
@<TRIPOS>SUBSTRUCTURE
     1 1Q6         1 TEMP              0 ****  ****    0 ROOT
