@<TRIPOS>MOLECULE
1Q7
   50    51     1     0     0
SMALL
bcc


@<TRIPOS>ATOM
      1 N22          0.0000     0.0000     0.0000 nv         1 1Q7      -0.510500
      2 C22          1.3900     0.0000     0.0000 ca         1 1Q7       0.523200
      3 C23          2.0800     0.0000     1.2080 ca         1 1Q7      -0.293300
      4 C24          3.4630    -0.0000     1.1930 ca         1 1Q7       0.005700
      5 C27          4.2470    -0.0010     2.4800 c3         1 1Q7       0.060200
      6 C25          4.1120    -0.0000    -0.0340 ca         1 1Q7      -0.296300
      7 N21          2.0460    -0.0060    -1.1510 nb         1 1Q7      -0.653000
      8 C26          3.3650     0.0000    -1.1950 ca         1 1Q7       0.398600
      9 C15          4.0650     0.0010    -2.5300 c3         1 1Q7       0.174100
     10 O14          5.4780     0.0000    -2.3260 os         1 1Q7      -0.418600
     11 C11          6.2390    -0.0990    -3.5320 c3         1 1Q7       0.164100
     12 C12          7.5800    -0.7730    -3.2350 c3         1 1Q7      -0.056200
     13 N13          7.3480    -2.1620    -2.8160 nz         1 1Q7       0.086400
     14 C10          6.4860     1.3020    -4.0960 c3         1 1Q7       0.196400
     15 O09          7.3070     2.0420    -3.1910 os         1 1Q7      -0.421600
     16 C08          7.5990     3.3710    -3.6250 c3         1 1Q7       0.176100
     17 C06          8.4670     4.0560    -2.6000 ca         1 1Q7       0.410600
     18 N01          8.8570     5.3000    -2.8030 nb         1 1Q7      -0.651000
     19 C02          9.6190     5.9400    -1.9300 ca         1 1Q7       0.522200
     20 N02         10.0070     7.2500    -2.1840 nv         1 1Q7      -0.517500
     21 C03         10.0360     5.3130    -0.7600 ca         1 1Q7      -0.299300
     22 C05          8.8390     3.3740    -1.4580 ca         1 1Q7      -0.292300
     23 C04          9.6420     4.0080    -0.5200 ca         1 1Q7      -0.002300
     24 C07         10.0720     3.2930     0.7350 c3         1 1Q7       0.061200
     25 H1          -0.5000    -0.0120     0.8670 hn         1 1Q7       0.276300
     26 H2          -0.5000     0.0280    -0.8660 hn         1 1Q7       0.276300
     27 H3           1.5480    -0.1760     2.1350 ha         1 1Q7       0.128000
     28 H4           4.6590     0.9860     2.6520 hc         1 1Q7       0.013367
     29 H5           5.0520    -0.7220     2.4120 hc         1 1Q7       0.013367
     30 H6           3.5920    -0.2670     3.3010 hc         1 1Q7       0.013367
     31 H7           5.1940     0.0020    -0.0800 ha         1 1Q7       0.116000
     32 H8           3.7800    -0.8840    -3.0870 h1         1 1Q7       0.012200
     33 H9           3.7800     0.8850    -3.0870 h1         1 1Q7       0.012200
     34 H10          5.6910    -0.6880    -4.2570 h1         1 1Q7       0.023700
     35 H11          8.0860    -0.2360    -2.4420 hx         1 1Q7       0.098700
     36 H12          8.1950    -0.7620    -4.1270 hx         1 1Q7       0.098700
     37 H13          8.2190    -2.6560    -2.8020 hn         1 1Q7       0.223800
     38 H14          6.7240    -2.6050    -3.4610 hn         1 1Q7       0.223800
     39 H16          5.5390     1.8120    -4.2240 h1         1 1Q7       0.016700
     40 H17          6.9860     1.2220    -5.0540 h1         1 1Q7       0.016700
     41 H18          8.1220     3.3350    -4.5740 h1         1 1Q7       0.012200
     42 H19          6.6750     3.9240    -3.7430 h1         1 1Q7       0.012200
     43 H20         10.5830     7.7380    -1.5270 hn         1 1Q7       0.274800
     44 H21          9.7110     7.7050    -3.0250 hn         1 1Q7       0.274800
     45 H22         10.6610     5.8370    -0.0470 ha         1 1Q7       0.126000
     46 H23          8.5130     2.3530    -1.3000 ha         1 1Q7       0.115000
     47 H24         10.7470     2.4860     0.4770 hc         1 1Q7       0.010367
     48 H25          9.2010     2.8890     1.2370 hc         1 1Q7       0.010367
     49 H26         10.5770     3.9900     1.3930 hc         1 1Q7       0.010367
     50 H133         6.9460    -2.1710    -1.9000 hn         1 1Q7       0.223800
@<TRIPOS>BOND
     1     1     2 1   
     2     1    25 1   
     3     1    26 1   
     4     2     3 ar  
     5     2     7 ar  
     6     3     4 ar  
     7     3    27 1   
     8     4     5 1   
     9     4     6 ar  
    10     5    28 1   
    11     5    29 1   
    12     5    30 1   
    13     6     8 ar  
    14     6    31 1   
    15     7     8 ar  
    16     8     9 1   
    17     9    10 1   
    18     9    32 1   
    19     9    33 1   
    20    10    11 1   
    21    11    12 1   
    22    11    14 1   
    23    11    34 1   
    24    12    13 1   
    25    12    35 1   
    26    12    36 1   
    27    13    37 1   
    28    13    38 1   
    29    13    50 1   
    30    14    15 1   
    31    14    39 1   
    32    14    40 1   
    33    15    16 1   
    34    16    17 1   
    35    16    41 1   
    36    16    42 1   
    37    17    18 ar  
    38    17    22 ar  
    39    18    19 ar  
    40    19    20 1   
    41    19    21 ar  
    42    20    43 1   
    43    20    44 1   
    44    21    23 ar  
    45    21    45 1   
    46    22    23 ar  
    47    22    46 1   
    48    23    24 1   
    49    24    47 1   
    50    24    48 1   
    51    24    49 1   
@<TRIPOS>SUBSTRUCTURE
     1 1Q7         1 TEMP              0 ****  ****    0 ROOT
