@<TRIPOS>MOLECULE
1Q7
   50    51     1     0     0
SMALL
bcc


@<TRIPOS>ATOM
      1 N22          3.6990     2.1610    -2.8270 nv         1 1Q7      -0.927500
      2 C22          3.7900     1.0150    -1.9980 ca         1 1Q7       0.599200
      3 C23          4.0400     1.1560    -0.6030 ca         1 1Q7      -0.276300
      4 C24          4.0260     0.0190     0.2060 ca         1 1Q7       0.014700
      5 C27          4.3000     0.1170     1.6570 c3         1 1Q7      -0.074800
      6 C25          3.7540    -1.2260    -0.3810 ca         1 1Q7      -0.255300
      7 N21          3.5420    -0.2020    -2.5700 nb         1 1Q7      -0.792000
      8 C26          3.5130    -1.2860    -1.7640 ca         1 1Q7       0.407600
      9 C15          3.2090    -2.6340    -2.3810 c3         1 1Q7       0.078100
     10 O14          2.0200    -2.6140    -3.1600 os         1 1Q7      -0.411600
     11 C11          2.1780    -2.2400    -4.5270 c3         1 1Q7       0.096100
     12 C12          1.0690    -1.2160    -4.8330 c3         1 1Q7       0.100800
     13 N13          1.5070     0.1930    -4.6470 nz         1 1Q7      -0.814600
     14 C10          1.9640    -3.4990    -5.3830 c3         1 1Q7       0.112400
     15 O09          1.8170    -3.1830    -6.7550 os         1 1Q7      -0.410600
     16 C08          3.0230    -2.8710    -7.4510 c3         1 1Q7       0.070100
     17 C06          2.9010    -1.4840    -8.0490 ca         1 1Q7       0.417600
     18 N01          2.9600    -0.4180    -7.2210 nb         1 1Q7      -0.765000
     19 C02          2.8280     0.8260    -7.7740 ca         1 1Q7       0.573200
     20 N02          2.8040     1.9420    -6.8860 nv         1 1Q7      -0.935500
     21 C03          2.6380     1.0170    -9.1700 ca         1 1Q7      -0.269300
     22 C05          2.7210    -1.3730    -9.4400 ca         1 1Q7      -0.240300
     23 C04          2.5870    -0.0990   -10.0080 ca         1 1Q7       0.007700
     24 C07          2.4080     0.0560   -11.4690 c3         1 1Q7      -0.074800
     25 H1           4.0160     2.9860    -2.3580 hn         1 1Q7       0.393300
     26 H2           4.1450     2.0520    -3.7150 hn         1 1Q7       0.393300
     27 H3           4.2390     2.1450    -0.1660 ha         1 1Q7       0.158000
     28 H4           5.3570    -0.1940     1.8630 hc         1 1Q7       0.065367
     29 H5           3.6190    -0.5570     2.2350 hc         1 1Q7       0.065367
     30 H6           4.1640     1.1630     2.0280 hc         1 1Q7       0.065367
     31 H7           3.7270    -2.1360     0.2340 ha         1 1Q7       0.160000
     32 H8           2.9740    -3.3780    -1.5680 h1         1 1Q7       0.080200
     33 H9           4.0880    -2.9890    -2.9820 h1         1 1Q7       0.080200
     34 H10          3.2010    -1.8210    -4.7370 h1         1 1Q7       0.085700
     35 H11          0.7470    -1.3480    -5.9080 hx         1 1Q7       0.119700
     36 H12          0.1890    -1.4090    -4.1540 hx         1 1Q7       0.119700
     37 H13          1.0070     0.8070    -5.2950 hn         1 1Q7       0.463467
     38 H14          1.3350     0.4990    -3.6850 hn         1 1Q7       0.463467
     39 H16          0.9920    -3.9960    -5.1120 h1         1 1Q7       0.079200
     40 H17          2.8130    -4.2090    -5.2110 h1         1 1Q7       0.079200
     41 H18          3.9250    -2.9430    -6.7890 h1         1 1Q7       0.070200
     42 H19          3.1000    -3.6310    -8.2770 h1         1 1Q7       0.070200
     43 H20          3.6080     1.9690    -6.2890 hn         1 1Q7       0.388800
     44 H21          2.7170     2.8010    -7.3940 hn         1 1Q7       0.388800
     45 H22          2.5300     2.0270    -9.5910 ha         1 1Q7       0.156000
     46 H23          2.6800    -2.2720   -10.0710 ha         1 1Q7       0.163000
     47 H24          3.4000    -0.0310   -11.9820 hc         1 1Q7       0.065367
     48 H25          1.7350    -0.7420   -11.8720 hc         1 1Q7       0.065367
     49 H26          1.9680     1.0530   -11.7210 hc         1 1Q7       0.065367
     50 H133         2.5160     0.2750    -4.8320 hn         1 1Q7       0.463467
@<TRIPOS>BOND
     1     1     2 1   
     2     1    25 1   
     3     1    26 1   
     4     2     3 ar  
     5     2     7 ar  
     6     3     4 ar  
     7     3    27 1   
     8     4     5 1   
     9     4     6 ar  
    10     5    28 1   
    11     5    29 1   
    12     5    30 1   
    13     6     8 ar  
    14     6    31 1   
    15     7     8 ar  
    16     8     9 1   
    17     9    10 1   
    18     9    32 1   
    19     9    33 1   
    20    10    11 1   
    21    11    12 1   
    22    11    14 1   
    23    11    34 1   
    24    12    13 1   
    25    12    35 1   
    26    12    36 1   
    27    13    37 1   
    28    13    38 1   
    29    13    50 1   
    30    14    15 1   
    31    14    39 1   
    32    14    40 1   
    33    15    16 1   
    34    16    17 1   
    35    16    41 1   
    36    16    42 1   
    37    17    18 ar  
    38    17    22 ar  
    39    18    19 ar  
    40    19    20 1   
    41    19    21 ar  
    42    20    43 1   
    43    20    44 1   
    44    21    23 ar  
    45    21    45 1   
    46    22    23 ar  
    47    22    46 1   
    48    23    24 1   
    49    24    47 1   
    50    24    48 1   
    51    24    49 1   
@<TRIPOS>SUBSTRUCTURE
     1 1Q7         1 TEMP              0 ****  ****    0 ROOT
