@<TRIPOS>MOLECULE
1Q8
   21    21     1     0     0
SMALL
bcc


@<TRIPOS>ATOM
      1 O6           0.1760    -0.9380     0.1370 o          1 1Q8      -0.430100
      2 C2           1.2930    -0.4620    -0.0150 c          1 1Q8       0.582700
      3 N5           2.0030    -0.0660     1.2700 ny         1 1Q8      -0.728800
      4 C9           1.0600     0.6050     2.2560 c3         1 1Q8       0.330600
      5 O11          1.7640     0.8440     3.4340 oh         1 1Q8      -0.554800
      6 C1           2.0140    -0.2090    -1.2590 ca         1 1Q8      -0.212600
      7 C4           3.4160    -0.1580    -1.3400 ca         1 1Q8      -0.065000
      8 C8           4.0270     0.0660    -2.5690 ca         1 1Q8      -0.122500
      9 C10          3.2520     0.2390    -3.7220 ca         1 1Q8      -0.046000
     10 C7           1.8610     0.1770    -3.6450 ca         1 1Q8      -0.122500
     11 C3           1.2360    -0.0520    -2.4210 ca         1 1Q8      -0.065000
     12 H1           2.7730     0.5780     1.0600 hn         1 1Q8       0.458300
     13 H2           0.1550    -0.0550     2.3820 hx         1 1Q8       0.128200
     14 H3           0.7880     1.6160     1.8280 hx         1 1Q8       0.128200
     15 H4           1.5610     0.1500     4.0830 ho         1 1Q8       0.450000
     16 H5           4.0540    -0.3230    -0.4590 ha         1 1Q8       0.149500
     17 H6           5.1270     0.1010    -2.6370 ha         1 1Q8       0.170500
     18 H7           3.7450     0.4180    -4.6930 ha         1 1Q8       0.171000
     19 H8           1.2490     0.3040    -4.5540 ha         1 1Q8       0.170500
     20 H9           0.1360    -0.1150    -2.3590 ha         1 1Q8       0.149500
     21 H52          2.4040    -0.9050     1.7000 hn         1 1Q8       0.458300
@<TRIPOS>BOND
     1     1     2 2   
     2     2     3 1   
     3     2     6 1   
     4     3     4 1   
     5     3    12 1   
     6     3    21 1   
     7     4     5 1   
     8     4    13 1   
     9     4    14 1   
    10     5    15 1   
    11     6     7 ar  
    12     6    11 ar  
    13     7     8 ar  
    14     7    16 1   
    15     8     9 ar  
    16     8    17 1   
    17     9    10 ar  
    18     9    18 1   
    19    10    11 ar  
    20    10    19 1   
    21    11    20 1   
@<TRIPOS>SUBSTRUCTURE
     1 1Q8         1 TEMP              0 ****  ****    0 ROOT
