@<TRIPOS>MOLECULE
molecule
   20    20     1     0     0
SMALL
bcc


@<TRIPOS>ATOM
      1 O6           0.0000     0.0000     0.0000 o          1 1Q8      -0.601100
      2 C2           1.2160     0.0000     0.0000 c          1 1Q8       0.682700
      3 N5           1.8890     0.0000     1.1680 ns         1 1Q8      -0.578900
      4 C9           1.1560     0.0000     2.4370 c3         1 1Q8       0.318800
      5 O11          1.0190    -1.3410     2.9070 oh         1 1Q8      -0.623800
      6 C1           1.9560    -0.0060    -1.2800 ca         1 1Q8      -0.147600
      7 C4           1.2620    -0.0120    -2.4910 ca         1 1Q8      -0.085000
      8 C8           1.9570    -0.0180    -3.6810 ca         1 1Q8      -0.138500
      9 C10          3.3410    -0.0180    -3.6770 ca         1 1Q8      -0.105000
     10 C7           4.0350    -0.0120    -2.4810 ca         1 1Q8      -0.138500
     11 C3           3.3510     0.0000    -1.2820 ca         1 1Q8      -0.085000
     12 H1           2.8900     0.0220     1.1690 hn         1 1Q8       0.318500
     13 H2           0.1740     0.4320     2.2860 h2         1 1Q8       0.043700
     14 H3           1.7000     0.5860     3.1680 h2         1 1Q8       0.043700
     15 H4           0.7800    -1.3320     3.8190 ho         1 1Q8       0.412000
     16 H5           0.1780    -0.0120    -2.4950 ha         1 1Q8       0.141000
     17 H6           1.4200    -0.0220    -4.6220 ha         1 1Q8       0.134500
     18 H7           3.8830    -0.0250    -4.6150 ha         1 1Q8       0.132000
     19 H8           5.1180    -0.0100    -2.4850 ha         1 1Q8       0.134500
     20 H9           3.8960     0.0040    -0.3460 ha         1 1Q8       0.141000
@<TRIPOS>BOND
     1    10     9 ar  
     2    10    11 ar  
     3     9     8 ar  
     4    11     6 ar  
     5     8     7 ar  
     6     6     7 ar  
     7     6     2 1   
     8     1     2 2   
     9     2     3 1   
    10     3     4 1   
    11     4     5 1   
    12     3    12 1   
    13     4    13 1   
    14     4    14 1   
    15     5    15 1   
    16     7    16 1   
    17     8    17 1   
    18     9    18 1   
    19    10    19 1   
    20    11    20 1   
@<TRIPOS>SUBSTRUCTURE
     1 1Q8         1 TEMP              0 ****  ****    0 ROOT
