@<TRIPOS>MOLECULE
1Q9
   36    36     1     0     0
SMALL
bcc


@<TRIPOS>ATOM
      1 C1          0.8790    0.5870   -0.2040 c2        1 1Q9     -0.152000
      2 C2         -0.1060   -0.8920   -1.9030 c3        1 1Q9     -0.040000
      3 N1          2.1490    1.0190   -0.6670 na        1 1Q9     -0.166000
      4 C3         -1.8370    2.2080   -3.8430 c3        1 1Q9     -0.032000
      5 O1         -1.0600    1.0080   -3.6540 os        1 1Q9     -0.289000
      6 C4         -1.3470    3.2170   -2.8300 c3        1 1Q9     -0.239000
      7 N3          1.0050    0.4700    1.1710 n2        1 1Q9     -0.011000
      8 N4          2.2480    0.8140    1.4520 n2        1 1Q9      0.001000
      9 N5          2.9320    1.1370    0.4030 n2        1 1Q9      0.064000
     10 N6         -0.2910    0.3180   -1.0130 n4        1 1Q9      0.032000
     11 CG         -1.3240   -1.1370   -2.7160 ca        1 1Q9     -0.222000
     12 CD1        -1.9840   -2.3660   -2.6180 ca        1 1Q9     -0.063000
     13 CE1        -3.0330   -2.6620   -3.4840 ca        1 1Q9     -0.143000
     14 CZ         -3.3950   -1.7510   -4.4760 ca        1 1Q9     -0.032000
     15 CE2        -2.7580   -0.5130   -4.5960 ca        1 1Q9     -0.454000
     16 CD2        -1.7580   -0.1920   -3.6770 ca        1 1Q9      0.119000
     17 CL1        -3.2040    0.5070   -5.9920 cl        1 1Q9      0.672000
     18 CL2        -3.4770    4.4130   -7.0570 cl        1 1Q9      0.575000
     19 H1          0.1400   -1.7710   -1.2400 hx        1 1Q9      0.148500
     20 H2          0.7710   -0.6710   -2.5790 hx        1 1Q9      0.148500
     21 H3          2.4620    1.2140   -1.5960 hn        1 1Q9      0.318000
     22 H4         -1.6340    2.5590   -4.8910 h1        1 1Q9      0.110500
     23 H5         -2.9310    2.0050   -3.7150 h1        1 1Q9      0.110500
     24 H6         -1.7850    4.2170   -3.0740 hc        1 1Q9      0.090667
     25 H7         -0.2350    3.3020   -2.8590 hc        1 1Q9      0.090667
     26 H8         -1.6670    2.9390   -1.7970 hc        1 1Q9      0.090667
     27 H9         -0.5020    1.1420   -1.6130 hn        1 1Q9      0.283500
     28 H10        -1.6630   -3.1080   -1.8690 ha        1 1Q9      0.146000
     29 H11        -4.1960   -2.0230   -5.1840 ha        1 1Q9      0.151000
     30 H12        -3.5600   -3.6260   -3.3980 ha        1 1Q9      0.161000
     31 H13        -4.4120    0.7810   -6.4680 ha        1 1Q9     -0.089500
     32 H14        -2.4000    1.1540   -6.8270 ha        1 1Q9     -0.089500
     33 H15        -3.1680    3.2620   -6.3940 ha        1 1Q9     -0.191667
     34 H16        -4.5910    5.1190   -6.8310 ha        1 1Q9     -0.191667
     35 H17        -2.6930    4.9540   -7.9980 ha        1 1Q9     -0.191667
     36 H62        -1.0950    0.1580   -0.3850 hn        1 1Q9      0.283500
@<TRIPOS>BOND
     1    1    3 1
     2    1    7 1
     3    1   10 1
     4    2   10 1
     5    2   11 1
     6    2   19 1
     7    2   20 1
     8    3    9 1
     9    3   21 1
    10    4    5 1
    11    4    6 1
    12    4   22 1
    13    4   23 1
    14    5   16 1
    15    6   24 1
    16    6   25 1
    17    6   26 1
    18    7    8 1
    19    8    9 1
    20   10   27 1
    21   10   36 1
    22   11   12 1
    23   11   16 1
    24   12   13 1
    25   12   28 1
    26   13   14 1
    27   13   30 1
    28   14   15 1
    29   14   29 1
    30   15   16 1
    31   15   17 1
    32   17   31 1
    33   17   32 1
    34   18   33 1
    35   18   34 1
    36   18   35 1
@<TRIPOS>SUBSTRUCTURE
     1 1Q9         1 TEMP              0 ****  ****    0 ROOT
