@<TRIPOS>MOLECULE
1QA
   42    44     1     0     0
SMALL
bcc


@<TRIPOS>ATOM
      1 C1           0.5090    -0.9830     0.8310 ca         1 1QA      -0.148000
      2 C2           1.2700     0.0320     0.2430 ca         1 1QA      -0.084300
      3 C3           1.4750     1.2320     0.9670 ca         1 1QA       0.405200
      4 C7          -0.2250     0.6990     4.1470 cc         1 1QA       0.300400
      5 C9          -0.6700     0.3860     6.2980 cd         1 1QA       0.270600
      6 C10         -1.2140     1.6630     6.1170 cc         1 1QA      -0.241400
      7 C12         -0.6470    -0.3210     7.6040 c3         1 1QA      -0.161700
      8 C13         -1.6020    -1.4880     7.5850 c          1 1QA       0.561100
      9 C15         -3.6580    -0.0810     7.9070 c3         1 1QA       0.006800
     10 C16         -3.2380     1.1100     8.8900 c          1 1QA       0.928600
     11 O17         -3.2990     2.2550     8.4090 o          1 1QA      -0.767800
     12 C19         -5.1270    -0.3390     7.9650 ca         1 1QA      -0.128300
     13 C20         -5.8220    -0.1870     9.1720 ca         1 1QA      -0.101000
     14 C21         -7.1980    -0.4060     9.2140 ca         1 1QA      -0.136000
     15 C22         -7.8850    -0.7740     8.0570 ca         1 1QA      -0.107000
     16 C24         -5.8190    -0.7050     6.8050 ca         1 1QA      -0.101000
     17 C27          1.8230    -0.1280    -1.0520 cg         1 1QA       0.228800
     18 N4           0.9930     1.4400     2.1990 nb         1 1QA      -0.632000
     19 C5           0.2690     0.4560     2.7890 ca         1 1QA       0.367300
     20 C6          -0.0100    -0.7690     2.1190 ca         1 1QA       0.046800
     21 N8          -0.1010    -0.1710     5.1590 nd         1 1QA      -0.586000
     22 S11         -1.0000     2.1750     4.5640 ss         1 1QA       0.059700
     23 N14         -2.8990    -1.3220     8.3120 ny         1 1QA      -0.671800
     24 O18         -2.8330     0.7410    10.0250 o          1 1QA      -0.767800
     25 C23         -7.1950    -0.9210     6.8530 ca         1 1QA      -0.136000
     26 O25         -1.4280    -2.5850     7.0660 o          1 1QA      -0.455100
     27 O26         -0.8190    -1.6790     2.7440 oh         1 1QA      -0.462100
     28 N28          2.2770    -0.2580    -2.1150 n1         1 1QA      -0.337800
     29 H1           0.3190    -1.9280     0.3010 ha         1 1QA       0.157000
     30 H2           2.0610     2.0630     0.5330 h4         1 1QA       0.044100
     31 H3          -1.7270     2.2350     6.9050 h4         1 1QA       0.241000
     32 H4           0.3790    -0.7420     7.8060 hc         1 1QA       0.121700
     33 H5          -0.9070     0.4060     8.4280 hc         1 1QA       0.121700
     34 H6          -3.3410     0.2030     6.8640 hx         1 1QA       0.099700
     35 H8          -5.2740     0.1320    10.0770 ha         1 1QA       0.151000
     36 H9          -7.7420    -0.2770    10.1620 ha         1 1QA       0.139500
     37 H10         -8.9720    -0.9410     8.0920 ha         1 1QA       0.137000
     38 H11         -5.2820    -0.8070     5.8500 ha         1 1QA       0.151000
     39 H12         -3.4800    -2.1550     8.1900 hn         1 1QA       0.460300
     40 H13         -7.7390    -1.2010     5.9380 ha         1 1QA       0.139500
     41 H14         -0.7820    -2.5090     2.2410 ho         1 1QA       0.427000
     42 H142        -2.6930    -1.1890     9.3290 hn         1 1QA       0.460300
@<TRIPOS>BOND
     1     1     2 ar  
     2     1    20 ar  
     3     1    29 1   
     4     2     3 ar  
     5     2    17 1   
     6     3    18 ar  
     7     3    30 1   
     8     4    19 1   
     9     4    21 2   
    10     4    22 1   
    11     5     6 2   
    12     5     7 1   
    13     5    21 1   
    14     6    22 1   
    15     6    31 1   
    16     7     8 1   
    17     7    32 1   
    18     7    33 1   
    19     8    23 1   
    20     8    26 2   
    21     9    10 1   
    22     9    12 1   
    23     9    23 1   
    24     9    34 1   
    25    10    11 1   
    26    10    24 1   
    27    12    13 ar  
    28    12    16 ar  
    29    13    14 ar  
    30    13    35 1   
    31    14    15 ar  
    32    14    36 1   
    33    15    25 ar  
    34    15    37 1   
    35    16    25 ar  
    36    16    38 1   
    37    17    28 3   
    38    18    19 ar  
    39    19    20 ar  
    40    20    27 1   
    41    23    39 1   
    42    23    42 1   
    43    25    40 1   
    44    27    41 1   
@<TRIPOS>SUBSTRUCTURE
     1 1QA         1 TEMP              0 ****  ****    0 ROOT
