@<TRIPOS>MOLECULE
molecule
   41    43     1     0     0
SMALL
bcc


@<TRIPOS>ATOM
      1 C1           0.0000     0.0000     0.0000 ca         1 1QA      -0.091000
      2 C2           1.4010     0.0000     0.0000 ca         1 1QA      -0.141300
      3 C3           2.0830     0.0000     1.2200 ca         1 1QA       0.462200
      4 C7          -0.5920     0.0010     3.7060 cc         1 1QA       0.390400
      5 C9          -0.7800     0.0110     5.9280 cc         1 1QA       0.412600
      6 C10         -2.0980     0.0010     5.6880 cd         1 1QA      -0.174400
      7 C12         -0.2220     0.0170     7.3280 c3         1 1QA      -0.235700
      8 C13          0.7210    -1.1450     7.4980 c          1 1QA       0.637100
      9 C15          2.2600    -2.4720     8.8440 c3         1 1QA       0.045000
     10 C16          1.4770    -3.7040     9.2150 c          1 1QA       0.885600
     11 O17          2.1140    -4.8680     9.4200 o          1 1QA      -0.834800
     12 C19          3.2510    -2.1580     9.9350 ca         1 1QA       0.006700
     13 C20          2.8340    -1.5110    11.0830 ca         1 1QA      -0.121000
     14 C21          3.7440    -1.2230    12.0830 ca         1 1QA      -0.152500
     15 C22          5.0700    -1.5830    11.9360 ca         1 1QA      -0.156000
     16 C24          4.5770    -2.5230     9.7900 ca         1 1QA      -0.121000
     17 C27          2.1260    -0.0020    -1.2350 cg         1 1QA       0.247800
     18 N4           1.4250     0.0010     2.3580 nb         1 1QA      -0.623000
     19 C5           0.0960     0.0010     2.4010 ca         1 1QA       0.426300
     20 C6          -0.6580     0.0050     1.2190 ca         1 1QA      -0.046200
     21 N8          -0.0060     0.0060     4.8700 nc         1 1QA      -0.583000
     22 S11         -2.3380     0.0010     3.9410 ss         1 1QA      -0.251300
     23 N14          1.3430    -1.3420     8.6780 ns         1 1QA      -0.541900
     24 O18          0.2760    -3.6450     9.3310 o          1 1QA      -0.834800
     25 C23          5.4870    -2.2310    10.7870 ca         1 1QA      -0.152500
     26 O25          0.9210    -1.9040     6.5750 o          1 1QA      -0.592100
     27 O26         -2.0150     0.0120     1.2700 oh         1 1QA      -0.485100
     28 N28          2.7150     0.0080    -2.2070 n1         1 1QA      -0.368800
     29 H1          -0.6800    -0.1800    -0.8240 ha         1 1QA       0.160000
     30 H2           3.1660    -0.0080     1.2010 h4         1 1QA       0.041100
     31 H3          -2.8790    -0.4110     6.3150 h4         1 1QA       0.186000
     32 H4           0.1480     1.0280     7.4420 hc         1 1QA       0.101200
     33 H5          -0.7800    -0.5890     8.0320 hc         1 1QA       0.101200
     34 H6           2.7890    -2.6470     7.9150 h1         1 1QA       0.091700
     35 H8           1.8630    -1.3880    11.5480 ha         1 1QA       0.135500
     36 H9           3.2230    -0.8480    12.9560 ha         1 1QA       0.111500
     37 H10          5.6700    -1.2370    12.7690 ha         1 1QA       0.106000
     38 H11          5.0300    -3.1280     9.0140 ha         1 1QA       0.135500
     39 H12          0.8650    -0.8920     9.4340 hn         1 1QA       0.293500
     40 H13          6.5580    -2.1960    10.6260 ha         1 1QA       0.111500
     41 H14         -2.2130     0.9330     1.2290 ho         1 1QA       0.417000
@<TRIPOS>BOND
     1    24    10 1   
     2    11    10 1   
     3    10     9 1   
     4     9    23 1   
     5     9    12 1   
     6    23     8 1   
     7     8    26 2   
     8     8     7 1   
     9     7     5 1   
    10    12    16 ar  
    11    12    13 ar  
    12    16    25 ar  
    13    13    14 ar  
    14     5    21 1   
    15     5     6 2   
    16    25    15 ar  
    17    21     4 2   
    18    14    15 ar  
    19     6    22 1   
    20     4    22 1   
    21     4    19 1   
    22    18    19 ar  
    23    18     3 ar  
    24    19    20 ar  
    25     3     2 ar  
    26    20    27 1   
    27    20     1 ar  
    28     2     1 ar  
    29     2    17 1   
    30    17    28 3   
    31     1    29 1   
    32     3    30 1   
    33     6    31 1   
    34     7    32 1   
    35     7    33 1   
    36     9    34 1   
    37    13    35 1   
    38    14    36 1   
    39    15    37 1   
    40    16    38 1   
    41    23    39 1   
    42    25    40 1   
    43    27    41 1   
@<TRIPOS>SUBSTRUCTURE
     1 1QA         1 TEMP              0 ****  ****    0 ROOT
