@<TRIPOS>MOLECULE
1QB
   27    28     1     0     0
SMALL
bcc


@<TRIPOS>ATOM
      1 O13          0.1230    -0.0970     0.5270 o          1 1QB      -0.405100
      2 C11          1.2920    -0.0210     0.1890 c          1 1QB       0.559100
      3 C12          2.4890     0.3010     1.0110 c3         1 1QB      -0.183100
      4 N10          1.5500    -0.3090    -1.2860 ny         1 1QB      -0.562600
      5 C7           1.7470     0.9320    -2.0530 c2         1 1QB      -0.109200
      6 C3           3.1700     1.2030    -2.4680 c3         1 1QB       0.032000
      7 C9           0.6890     1.7190    -2.3550 c2         1 1QB      -0.039200
      8 C5           0.8040     2.9800    -3.1310 c3         1 1QB      -0.014000
      9 C2           2.1940     3.2750    -3.5110 ce         1 1QB      -0.078200
     10 C6           2.6700     4.4440    -4.2600 ce         1 1QB      -0.144000
     11 C8           4.0190     4.3410    -4.4090 c2         1 1QB      -0.137200
     12 C4           4.5210     3.0750    -3.7560 c3         1 1QB      -0.030000
     13 C1           3.2560     2.4690    -3.2080 c2         1 1QB      -0.174400
     14 H1           3.0560     1.1630     0.5730 hc         1 1QB       0.115700
     15 H2           3.1670    -0.5870     1.0840 hc         1 1QB       0.115700
     16 H3           2.1480     0.5790     2.0440 hc         1 1QB       0.115700
     17 H4           0.7440    -0.8200    -1.6750 hn         1 1QB       0.461300
     18 H5           3.8350     1.2490    -1.5590 hc         1 1QB       0.066700
     19 H6           3.5440     0.3610    -3.1190 hc         1 1QB       0.066700
     20 H7          -0.3400     1.4680    -2.0350 ha         1 1QB       0.156000
     21 H8           0.3810     3.8250    -2.5140 hc         1 1QB       0.105700
     22 H9           0.1590     2.8970    -4.0530 hc         1 1QB       0.105700
     23 H10          2.0100     5.2340    -4.6160 ha         1 1QB       0.163000
     24 H11          4.6950     5.0320    -4.9130 ha         1 1QB       0.166000
     25 H12          5.0080     2.4010    -4.5050 hc         1 1QB       0.094200
     26 H13          5.2560     3.3040    -2.9430 hc         1 1QB       0.094200
     27 H102         2.3880    -0.8920    -1.3790 hn         1 1QB       0.461300
@<TRIPOS>BOND
     1     1     2 2   
     2     2     3 1   
     3     2     4 1   
     4     3    14 1   
     5     3    15 1   
     6     3    16 1   
     7     4     5 1   
     8     4    17 1   
     9     4    27 1   
    10     5     6 1   
    11     5     7 2   
    12     6    13 1   
    13     6    18 1   
    14     6    19 1   
    15     7     8 1   
    16     7    20 1   
    17     8     9 1   
    18     8    21 1   
    19     8    22 1   
    20     9    10 1   
    21     9    13 2   
    22    10    11 2   
    23    10    23 1   
    24    11    12 1   
    25    11    24 1   
    26    12    13 1   
    27    12    25 1   
    28    12    26 1   
@<TRIPOS>SUBSTRUCTURE
     1 1QB         1 TEMP              0 ****  ****    0 ROOT
