@<TRIPOS>MOLECULE
molecule
   26    27     1     0     0
SMALL
bcc


@<TRIPOS>ATOM
      1 O13          0.0000     0.0000     0.0000 o          1 1QB      -0.601100
      2 C11          1.2140     0.0000     0.0000 c          1 1QB       0.656100
      3 C12          1.9660     0.0000     1.3060 c3         1 1QB      -0.173100
      4 N10          1.8880    -0.0040    -1.1670 ns         1 1QB      -0.485100
      5 C7           1.1950    -0.1090    -2.3700 c2         1 1QB       0.042400
      6 C3          -0.3050    -0.0610    -2.3230 c3         1 1QB       0.032000
      7 C9           1.8920    -0.2360    -3.4640 c2         1 1QB      -0.252200
      8 C5           1.3110    -0.3560    -4.8410 c3         1 1QB       0.039000
      9 C2          -0.1390     0.0630    -4.8250 ce         1 1QB      -0.130200
     10 C6          -0.9720     0.3860    -5.9850 ce         1 1QB      -0.121000
     11 C8          -2.2020     0.7150    -5.6040 c2         1 1QB      -0.188200
     12 C4          -2.2340     0.6200    -4.0930 c3         1 1QB      -0.039000
     13 C1          -0.8460     0.1840    -3.7040 c2         1 1QB      -0.135400
     14 H1           2.5470     0.9110     1.3880 hc         1 1QB       0.063700
     15 H2           1.2620    -0.0550     2.1280 hc         1 1QB       0.063700
     16 H3           2.6290    -0.8560     1.3410 hc         1 1QB       0.063700
     17 H4           2.8850     0.0820    -1.1690 hn         1 1QB       0.324500
     18 H5          -0.6830    -1.0050    -1.9510 hc         1 1QB       0.087200
     19 H6          -0.6180     0.7430    -1.6670 hc         1 1QB       0.087200
     20 H7           2.9710    -0.2570    -3.3710 ha         1 1QB       0.114000
     21 H8           1.8620     0.2860    -5.5190 hc         1 1QB       0.054200
     22 H9           1.3830    -1.3840    -5.1720 hc         1 1QB       0.054200
     23 H10         -0.8160    -0.1300    -6.9250 ha         1 1QB       0.140000
     24 H11         -2.7290     1.5160    -6.1080 ha         1 1QB       0.151000
     25 H12         -2.9610    -0.1190    -3.7780 hc         1 1QB       0.075200
     26 H13         -2.4580     1.5870    -3.6610 hc         1 1QB       0.075200
@<TRIPOS>BOND
     1    10     9 1
     2    10    11 2
     3     8     9 1
     4     8     7 1
     5     9    13 2
     6    11    12 1
     7     7     5 2
     8    13    12 1
     9    13     6 1
    10     5     6 1
    11     5     4 1
    12     1     2 2
    13     4     2 1
    14     2     3 1
    15     3    14 1
    16     3    15 1
    17     3    16 1
    18     4    17 1
    19     6    18 1
    20     6    19 1
    21     7    20 1
    22     8    21 1
    23     8    22 1
    24    10    23 1
    25    11    24 1
    26    12    25 1
    27    12    26 1
@<TRIPOS>SUBSTRUCTURE
     1 1QB         1 TEMP              0 ****  ****    0 ROOT
