@<TRIPOS>MOLECULE
1QC
   62    64     1     0     0
SMALL
bcc


@<TRIPOS>ATOM
      1 CAC          0.0000     0.0000     0.0000 c3         1 1QC       0.010700
      2 SBH          1.8140     0.0000     0.0000 s6         1 1QC       0.954900
      3 OAF          2.3120     0.0000     1.3310 o          1 1QC      -0.585800
      4 OAG          2.3120    -0.9120    -0.9690 o          1 1QC      -0.585800
      5 NAT          2.2280     1.4900    -0.5910 n7         1 1QC      -0.598100
      6 CAM          1.8910     2.6980     0.1670 c3         1 1QC       0.227800
      7 CAN          2.6880     3.8830    -0.3820 c3         1 1QC       0.186400
      8 OAV          2.2780     4.1520    -1.7240 os         1 1QC      -0.298900
      9 CBD          2.8940     5.1840    -2.3630 ca         1 1QC       0.112100
     10 CAK          3.8690     5.9170    -1.7120 ca         1 1QC      -0.139000
     11 CBC          2.5470     5.4970    -3.6750 ca         1 1QC       0.131100
     12 OAU          1.5910     4.7720    -4.3160 os         1 1QC      -0.294900
     13 CAB          1.2840     5.1480    -5.6600 c3         1 1QC       0.242700
     14 CAI          3.1720     6.5480    -4.3290 ca         1 1QC      -0.180000
     15 CAH          4.1420     7.2870    -3.6830 ca         1 1QC      -0.081000
     16 CBA          4.4980     6.9740    -2.3700 ca         1 1QC      -0.126500
     17 CBG          5.5410     7.7620    -1.6790 cc         1 1QC       0.528900
     18 NAS          5.9550     7.5620    -0.4600 nd         1 1QC      -0.546000
     19 SAX          6.4300     9.1140    -2.3740 ss         1 1QC      -0.326300
     20 CBF          7.3210     9.2980    -0.8640 cc         1 1QC      -0.072700
     21 CAO          8.3850    10.3280    -0.5860 c3         1 1QC       0.071900
     22 CAL          9.7540     9.7660    -0.9760 c3         1 1QC      -0.051400
     23 CAA         10.8340    10.8130    -0.6940 c3         1 1QC       0.008900
     24 CBE          6.8930     8.3630    -0.0100 cd         1 1QC       0.328600
     25 CAP          7.4540     8.2350     1.3830 c3         1 1QC       0.061400
     26 SAW          8.8740     7.1120     1.3610 ss         1 1QC      -0.380400
     27 C2           9.3190     7.1460     3.0650 ca         1 1QC       0.797300
     28 N3          10.3510     6.4260     3.4780 nb         1 1QC      -0.697500
     29 N1           8.6150     7.8970     3.9010 nb         1 1QC      -0.697500
     30 C6           8.9210     7.9470     5.1950 ca         1 1QC       0.569700
     31 NAD          8.1790     8.7340     6.0620 nv         1 1QC      -0.583000
     32 C5           9.9960     7.1990     5.6660 ca         1 1QC      -0.447600
     33 C4          10.7150     6.4260     4.7580 ca         1 1QC       0.569700
     34 NAE         11.7960     5.6700     5.1810 nv         1 1QC      -0.583000
     35 H1          -0.3610     0.3660    -0.9540 h1         1 1QC       0.062033
     36 H2          -0.3610    -1.0090     0.1600 h1         1 1QC       0.062033
     37 H3          -0.3610     0.6430     0.7930 h1         1 1QC       0.062033
     38 H4           2.7410     1.5640    -1.4480 hn         1 1QC       0.365800
     39 H5           0.8310     2.9000     0.0720 h1         1 1QC       0.020200
     40 H6           2.1380     2.5490     1.2110 h1         1 1QC       0.020200
     41 H7           3.7450     3.6460    -0.3680 h1         1 1QC       0.013700
     42 H8           2.5060     4.7560     0.2330 h1         1 1QC       0.013700
     43 H9           4.1430     5.6710    -0.6930 ha         1 1QC       0.143000
     44 H10          2.1740     5.0610    -6.2710 h1         1 1QC      -0.002300
     45 H11          0.9320     6.1720    -5.6780 h1         1 1QC      -0.002300
     46 H12          0.5130     4.4940    -6.0500 h1         1 1QC      -0.002300
     47 H13          2.8970     6.7900    -5.3480 ha         1 1QC       0.125000
     48 H14          4.6290     8.1070    -4.1960 ha         1 1QC       0.115000
     49 H19          8.1830    11.2210    -1.1660 hc         1 1QC       0.026200
     50 H20          8.3830    10.5740     0.4690 hc         1 1QC       0.026200
     51 H21          9.7560     9.5210    -2.0310 hc         1 1QC       0.032700
     52 H22          9.9560     8.8740    -0.3970 hc         1 1QC       0.032700
     53 H23         10.8810    11.0050     0.3720 hc         1 1QC       0.000700
     54 H24         10.5920    11.7310    -1.2150 hc         1 1QC       0.000700
     55 H25         11.7930    10.4440    -1.0370 hc         1 1QC       0.000700
     56 H26          6.6920     7.8410     2.0440 h1         1 1QC       0.060200
     57 H27          7.7700     9.2100     1.7360 h1         1 1QC       0.060200
     58 H28          7.3760     8.3510     6.5210 hn         1 1QC       0.276800
     59 H29          8.4370     9.6880     6.2170 hn         1 1QC       0.276800
     60 H30         10.2690     7.2200     6.7140 ha         1 1QC       0.131000
     61 H31         12.3070     5.1150     4.5230 hn         1 1QC       0.276800
     62 H32         12.0640     5.6760     6.1450 hn         1 1QC       0.276800
@<TRIPOS>BOND
     1     1     2 1   
     2     1    35 1   
     3     1    36 1   
     4     1    37 1   
     5     2     3 2   
     6     2     4 2   
     7     2     5 1   
     8     5     6 1   
     9     5    38 1   
    10     6     7 1   
    11     6    39 1   
    12     6    40 1   
    13     7     8 1   
    14     7    41 1   
    15     7    42 1   
    16     8     9 1   
    17     9    10 ar  
    18     9    11 ar  
    19    10    16 ar  
    20    10    43 1   
    21    11    12 1   
    22    11    14 ar  
    23    12    13 1   
    24    13    44 1   
    25    13    45 1   
    26    13    46 1   
    27    14    15 ar  
    28    14    47 1   
    29    15    16 ar  
    30    15    48 1   
    31    16    17 1   
    32    17    18 2   
    33    17    19 1   
    34    18    24 1   
    35    19    20 1   
    36    20    21 1   
    37    20    24 2   
    38    21    22 1   
    39    21    49 1   
    40    21    50 1   
    41    22    23 1   
    42    22    51 1   
    43    22    52 1   
    44    23    53 1   
    45    23    54 1   
    46    23    55 1   
    47    24    25 1   
    48    25    26 1   
    49    25    56 1   
    50    25    57 1   
    51    26    27 1   
    52    27    28 ar  
    53    27    29 ar  
    54    28    33 ar  
    55    29    30 ar  
    56    30    31 1   
    57    30    32 ar  
    58    31    58 1   
    59    31    59 1   
    60    32    33 ar  
    61    32    60 1   
    62    33    34 1   
    63    34    61 1   
    64    34    62 1   
@<TRIPOS>SUBSTRUCTURE
     1 1QC         1 TEMP              0 ****  ****    0 ROOT
