@<TRIPOS>MOLECULE
molecule
   62    64     1     0     0
SMALL
bcc


@<TRIPOS>ATOM
      1 CAC          0.0000     0.0000     0.0000 c3         1 1QC      -0.248300
      2 SBH          1.8140     0.0000     0.0000 s6         1 1QC       1.326900
      3 OAF          2.3120     0.0000     1.3310 o          1 1QC      -0.629800
      4 OAG          2.3120    -0.9120    -0.9690 o          1 1QC      -0.629800
      5 NAT          2.2280     1.4900    -0.5910 n7         1 1QC      -0.913100
      6 CAM          1.8910     2.6980     0.1670 c3         1 1QC       0.238800
      7 CAN          2.6880     3.8830    -0.3820 c3         1 1QC       0.126400
      8 OAV          2.2780     4.1520    -1.7240 os         1 1QC      -0.319900
      9 CBD          2.8940     5.1840    -2.3630 ca         1 1QC       0.108100
     10 CAK          3.8690     5.9170    -1.7120 ca         1 1QC      -0.146000
     11 CBC          2.5470     5.4970    -3.6750 ca         1 1QC       0.129100
     12 OAU          1.5910     4.7720    -4.3160 os         1 1QC      -0.312900
     13 CAB          1.2840     5.1480    -5.6600 c3         1 1QC       0.126700
     14 CAI          3.1720     6.5480    -4.3290 ca         1 1QC      -0.192000
     15 CAH          4.1420     7.2870    -3.6830 ca         1 1QC      -0.109000
     16 CBA          4.4980     6.9740    -2.3700 ca         1 1QC      -0.125500
     17 CBG          5.5410     7.7620    -1.6790 cc         1 1QC       0.535900
     18 NAS          5.9550     7.5620    -0.4600 nd         1 1QC      -0.671000
     19 SAX          6.4300     9.1140    -2.3740 ss         1 1QC      -0.234300
     20 CBF          7.3210     9.2980    -0.8640 cc         1 1QC      -0.109700
     21 CAO          8.3850    10.3280    -0.5860 c3         1 1QC      -0.002100
     22 CAL          9.7540     9.7660    -0.9760 c3         1 1QC      -0.087400
     23 CAA         10.8340    10.8130    -0.6940 c3         1 1QC      -0.091100
     24 CBE          6.8930     8.3630    -0.0100 cd         1 1QC       0.369600
     25 CAP          7.4540     8.2350     1.3830 c3         1 1QC      -0.027600
     26 SAW          8.8740     7.1120     1.3610 ss         1 1QC      -0.239400
     27 C2           9.3190     7.1460     3.0650 ca         1 1QC       0.836300
     28 N3          10.3510     6.4260     3.4780 nb         1 1QC      -0.813000
     29 N1           8.6150     7.8970     3.9010 nb         1 1QC      -0.813000
     30 C6           8.9210     7.9470     5.1950 ca         1 1QC       0.750200
     31 NAD          8.1790     8.7340     6.0620 nv         1 1QC      -1.043000
     32 C5           9.9960     7.1990     5.6660 ca         1 1QC      -0.469600
     33 C4          10.7150     6.4260     4.7580 ca         1 1QC       0.750200
     34 NAE         11.7960     5.6700     5.1810 nv         1 1QC      -1.043000
     35 H1          -0.3610     0.3660    -0.9540 h1         1 1QC       0.097367
     36 H2          -0.3610    -1.0090     0.1600 h1         1 1QC       0.097367
     37 H3          -0.3610     0.6430     0.7930 h1         1 1QC       0.097367
     38 H4           2.7410     1.5640    -1.4480 hn         1 1QC       0.468800
     39 H5           0.8310     2.9000     0.0720 h1         1 1QC       0.057200
     40 H6           2.1380     2.5490     1.2110 h1         1 1QC       0.057200
     41 H7           3.7450     3.6460    -0.3680 h1         1 1QC       0.051200
     42 H8           2.5060     4.7560     0.2330 h1         1 1QC       0.051200
     43 H9           4.1430     5.6710    -0.6930 ha         1 1QC       0.166000
     44 H10          2.1740     5.0610    -6.2710 h1         1 1QC       0.042700
     45 H11          0.9320     6.1720    -5.6780 h1         1 1QC       0.042700
     46 H12          0.5130     4.4940    -6.0500 h1         1 1QC       0.042700
     47 H13          2.8970     6.7900    -5.3480 ha         1 1QC       0.145000
     48 H14          4.6290     8.1070    -4.1960 ha         1 1QC       0.137000
     49 H19          8.1830    11.2210    -1.1660 hc         1 1QC       0.056700
     50 H20          8.3830    10.5740     0.4690 hc         1 1QC       0.056700
     51 H21          9.7560     9.5210    -2.0310 hc         1 1QC       0.054700
     52 H22          9.9560     8.8740    -0.3970 hc         1 1QC       0.054700
     53 H23         10.8810    11.0050     0.3720 hc         1 1QC       0.034367
     54 H24         10.5920    11.7310    -1.2150 hc         1 1QC       0.034367
     55 H25         11.7930    10.4440    -1.0370 hc         1 1QC       0.034367
     56 H26          6.6920     7.8410     2.0440 h1         1 1QC       0.091200
     57 H27          7.7700     9.2100     1.7360 h1         1 1QC       0.091200
     58 H28          7.3760     8.3510     6.5210 hn         1 1QC       0.442050
     59 H29          8.4370     9.6880     6.2170 hn         1 1QC       0.442050
     60 H30         10.2690     7.2200     6.7140 ha         1 1QC       0.145000
     61 H31         12.3070     5.1150     4.5230 hn         1 1QC       0.442050
     62 H32         12.0640     5.6760     6.1450 hn         1 1QC       0.442050
@<TRIPOS>BOND
     1     1     2 1   
     2     2     3 2   
     3     2     4 2   
     4     2     5 1   
     5     5     6 1   
     6     6     7 1   
     7     7     8 1   
     8     8     9 1   
     9     9    10 ar  
    10     9    11 ar  
    11    10    16 ar  
    12    11    12 1   
    13    11    14 ar  
    14    12    13 1   
    15    14    15 ar  
    16    15    16 ar  
    17    16    17 1   
    18    17    18 2   
    19    17    19 1   
    20    18    24 1   
    21    19    20 1   
    22    20    21 1   
    23    20    24 2   
    24    21    22 1   
    25    22    23 1   
    26    24    25 1   
    27    25    26 1   
    28    26    27 1   
    29    27    28 ar  
    30    27    29 ar  
    31    28    33 ar  
    32    29    30 ar  
    33    30    31 1   
    34    30    32 ar  
    35    32    33 ar  
    36    33    34 1   
    37     1    35 1   
    38     1    36 1   
    39     1    37 1   
    40     5    38 1   
    41     6    39 1   
    42     6    40 1   
    43     7    41 1   
    44     7    42 1   
    45    10    43 1   
    46    13    44 1   
    47    13    45 1   
    48    13    46 1   
    49    14    47 1   
    50    15    48 1   
    51    21    49 1   
    52    21    50 1   
    53    22    51 1   
    54    22    52 1   
    55    23    53 1   
    56    23    54 1   
    57    23    55 1   
    58    25    56 1   
    59    25    57 1   
    60    31    58 1   
    61    31    59 1   
    62    32    60 1   
    63    34    61 1   
    64    34    62 1   
@<TRIPOS>SUBSTRUCTURE
     1 1QC         1 TEMP              0 ****  ****    0 ROOT
