@<TRIPOS>MOLECULE
1QC
   63    65     1     0     0
SMALL
bcc


@<TRIPOS>ATOM
      1 CAC          1.4130    -0.0060    -0.4070 c3         1 1QC      -0.475300
      2 SBH          2.5670    -0.4620     0.6560 s6         1 1QC       1.424900
      3 OAF          2.0980    -0.9180     1.8680 o          1 1QC      -0.568300
      4 OAG          3.7130     0.3060     0.5960 o          1 1QC      -0.568300
      5 NAT          3.1860    -2.0150    -0.2270 ny         1 1QC      -0.700900
      6 CAM          2.5250    -3.2820     0.1790 c3         1 1QC       0.076800
      7 CAN          1.7420    -3.9450    -0.9630 c3         1 1QC       0.108400
      8 OAV          0.8760    -2.9710    -1.5480 os         1 1QC      -0.369900
      9 CBD         -0.4830    -3.2220    -1.3690 ca         1 1QC       0.018100
     10 CAK         -1.2080    -3.7500    -2.4400 ca         1 1QC      -0.055000
     11 CBC         -1.1290    -2.8490    -0.1720 ca         1 1QC       0.094100
     12 OAU         -0.3180    -2.3090     0.8090 os         1 1QC      -0.387900
     13 CAB         -0.8930    -2.1940     2.1130 c3         1 1QC       0.105700
     14 CAI         -2.5130    -3.0160    -0.0560 ca         1 1QC      -0.172000
     15 CAH         -3.2350    -3.5390    -1.1250 ca         1 1QC      -0.081000
     16 CBA         -2.5970    -3.9080    -2.3190 ca         1 1QC      -0.112500
     17 CBG         -3.3700    -4.4600    -3.4200 cc         1 1QC       0.397900
     18 NAS         -2.9350    -4.5200    -4.6870 nd         1 1QC      -0.605000
     19 SAX         -4.9410    -5.1140    -3.1830 ss         1 1QC      -0.054300
     20 CBF         -5.0680    -5.4970    -4.8110 cc         1 1QC      -0.141700
     21 CAO         -6.2430    -6.1680    -5.3940 c3         1 1QC      -0.022100
     22 CAL         -7.3990    -5.2230    -5.6740 c3         1 1QC      -0.075400
     23 CAA         -7.1510    -4.3390    -6.8680 c3         1 1QC      -0.099100
     24 CBE         -3.9000    -5.1150    -5.4880 cd         1 1QC       0.341600
     25 CAP         -3.6730    -5.3010    -6.9400 c3         1 1QC      -0.059600
     26 SAW         -2.8850    -6.8850    -7.1020 ss         1 1QC      -0.218400
     27 C2          -2.6780    -7.1040    -8.8120 ca         1 1QC       0.797300
     28 N3          -2.0570    -8.2670    -9.1480 nb         1 1QC      -0.802500
     29 N1          -3.1370    -6.1330    -9.6470 nb         1 1QC      -0.802500
     30 C6          -2.9350    -6.3460   -10.9940 ca         1 1QC       0.715700
     31 NAD         -3.2870    -5.3500   -11.8980 nv         1 1QC      -0.944500
     32 C5          -2.3160    -7.5370   -11.4660 ca         1 1QC      -0.503600
     33 C4          -1.8940    -8.4940   -10.4990 ca         1 1QC       0.715700
     34 NAE         -1.3600    -9.7030   -10.9170 nv         1 1QC      -0.944500
     35 H1           1.7860     0.4160    -1.3810 h1         1 1QC       0.185367
     36 H2           0.6760    -0.8190    -0.7010 h1         1 1QC       0.185367
     37 H3           0.7400     0.8040     0.0030 h1         1 1QC       0.185367
     38 H4           3.0520    -1.9020    -1.2350 hn         1 1QC       0.455800
     39 H5           1.8120    -3.0480     1.0280 hx         1 1QC       0.120200
     40 H6           3.3000    -4.0100     0.5540 hx         1 1QC       0.120200
     41 H7           2.4280    -4.2750    -1.7900 h1         1 1QC       0.092700
     42 H8           1.1860    -4.8260    -0.5520 h1         1 1QC       0.092700
     43 H9          -0.6830    -4.0260    -3.3690 ha         1 1QC       0.183000
     44 H10         -0.0270    -1.8600     2.7430 h1         1 1QC       0.062700
     45 H11         -1.7030    -1.4250     2.1090 h1         1 1QC       0.062700
     46 H12         -1.2860    -3.1800     2.4580 h1         1 1QC       0.062700
     47 H13         -3.0360    -2.7350     0.8710 ha         1 1QC       0.157000
     48 H14         -4.3280    -3.6610    -1.0280 ha         1 1QC       0.156000
     49 H19         -6.5960    -6.9700    -4.6860 hc         1 1QC       0.068700
     50 H20         -5.9450    -6.6860    -6.3480 hc         1 1QC       0.068700
     51 H21         -7.5980    -4.5900    -4.7690 hc         1 1QC       0.046200
     52 H22         -8.3190    -5.8420    -5.8560 hc         1 1QC       0.046200
     53 H23         -6.2310    -3.7220    -6.7180 hc         1 1QC       0.039700
     54 H24         -7.0150    -4.9520    -7.7920 hc         1 1QC       0.039700
     55 H25         -8.0170    -3.6520    -7.0260 hc         1 1QC       0.039700
     56 H26         -4.6500    -5.2740    -7.4870 h1         1 1QC       0.098700
     57 H27         -3.0270    -4.4910    -7.3640 h1         1 1QC       0.098700
     58 H28         -3.8830    -4.6220   -11.5780 hn         1 1QC       0.423550
     59 H29         -3.4260    -5.6490   -12.8340 hn         1 1QC       0.423550
     60 H30         -2.1700    -7.7130   -12.5370 ha         1 1QC       0.150000
     61 H31         -0.9300   -10.2910   -10.2420 hn         1 1QC       0.423550
     62 H32         -0.9930    -9.7290   -11.8370 hn         1 1QC       0.423550
     63 HAT2         4.1920    -2.0990    -0.0740 hn         1 1QC       0.455800
@<TRIPOS>BOND
     1     1     2 1   
     2     1    35 1   
     3     1    36 1   
     4     1    37 1   
     5     2     3 2   
     6     2     4 2   
     7     2     5 1   
     8     5     6 1   
     9     5    38 1   
    10     5    63 1   
    11     6     7 1   
    12     6    39 1   
    13     6    40 1   
    14     7     8 1   
    15     7    41 1   
    16     7    42 1   
    17     8     9 1   
    18     9    10 ar  
    19     9    11 ar  
    20    10    16 ar  
    21    10    43 1   
    22    11    12 1   
    23    11    14 ar  
    24    12    13 1   
    25    13    44 1   
    26    13    45 1   
    27    13    46 1   
    28    14    15 ar  
    29    14    47 1   
    30    15    16 ar  
    31    15    48 1   
    32    16    17 1   
    33    17    18 2   
    34    17    19 1   
    35    18    24 1   
    36    19    20 1   
    37    20    21 1   
    38    20    24 2   
    39    21    22 1   
    40    21    49 1   
    41    21    50 1   
    42    22    23 1   
    43    22    51 1   
    44    22    52 1   
    45    23    53 1   
    46    23    54 1   
    47    23    55 1   
    48    24    25 1   
    49    25    26 1   
    50    25    56 1   
    51    25    57 1   
    52    26    27 1   
    53    27    28 ar  
    54    27    29 ar  
    55    28    33 ar  
    56    29    30 ar  
    57    30    31 1   
    58    30    32 ar  
    59    31    58 1   
    60    31    59 1   
    61    32    33 ar  
    62    32    60 1   
    63    33    34 1   
    64    34    61 1   
    65    34    62 1   
@<TRIPOS>SUBSTRUCTURE
     1 1QC         1 TEMP              0 ****  ****    0 ROOT
