@<TRIPOS>MOLECULE
1QE
   52    55     1     0     0
SMALL
bcc


@<TRIPOS>ATOM
      1 N08          2.0060     1.2890     0.4750 n2         1 1QE      -0.816100
      2 C06          2.8310     0.3870     0.9120 ce         1 1QE       0.688300
      3 C05          2.2960    -0.6690     1.7960 cc         1 1QE      -0.226000
      4 S01          0.6750    -1.0960     1.7890 ss         1 1QE       0.146700
      5 C02          0.8580    -2.2430     2.9700 cc         1 1QE      -0.195100
      6 C03          2.1630    -2.3260     3.4180 cd         1 1QE      -0.162000
      7 C04          3.0070    -1.4040     2.7340 cd         1 1QE      -0.140500
      8 N07          4.2310     0.2800     0.6780 nu         1 1QE      -0.708600
      9 C11          4.8880     1.1170    -0.2460 ca         1 1QE       0.128600
     10 C16          5.6950     0.5550    -1.2630 ca         1 1QE      -0.168500
     11 C12          4.8210     2.5220    -0.1310 ca         1 1QE      -0.163500
     12 C13          5.5280     3.3270    -1.0200 ca         1 1QE      -0.103000
     13 C14          6.3160     2.7650    -2.0200 ca         1 1QE      -0.150000
     14 C15          6.4070     1.3740    -2.1400 ca         1 1QE      -0.054300
     15 C17          7.2660     0.7700    -3.1960 c3         1 1QE      -0.036100
     16 C37          6.6440     0.9260    -4.5760 c3         1 1QE      -0.036100
     17 C35          7.5260     0.3660    -5.6370 ca         1 1QE      -0.054300
     18 C34          7.1940    -0.8360    -6.2710 ca         1 1QE      -0.150000
     19 C33          8.0190    -1.3410    -7.2720 ca         1 1QE      -0.103000
     20 C32          9.1740    -0.6670    -7.6530 ca         1 1QE      -0.163500
     21 C36          8.6820     1.0520    -6.0100 ca         1 1QE      -0.168500
     22 C31          9.5320     0.5400    -7.0170 ca         1 1QE       0.128600
     23 N27         10.7410     1.2260    -7.2940 nu         1 1QE      -0.708600
     24 C26         11.4660     0.8500    -8.4820 ce         1 1QE       0.688300
     25 N28         11.4280     1.5830    -9.5490 n2         1 1QE      -0.816100
     26 C25         12.2960    -0.3570    -8.3200 cc         1 1QE      -0.226000
     27 S21         12.9470    -0.8640    -6.8650 ss         1 1QE       0.146700
     28 C22         13.7290    -2.1610    -7.5360 cc         1 1QE      -0.195100
     29 C23         13.5100    -2.2530    -8.8990 cd         1 1QE      -0.162000
     30 C24         12.6740    -1.1970    -9.3610 cd         1 1QE      -0.140500
     31 H1           2.3740     1.9830    -0.1390 hn         1 1QE       0.402900
     32 H2           0.0330    -2.8500     3.3430 h4         1 1QE       0.173500
     33 H3           2.5210    -3.0020     4.1970 ha         1 1QE       0.155000
     34 H4           4.0720    -1.2950     2.9530 ha         1 1QE       0.156000
     35 H5           4.5860    -0.6510     0.7220 hn         1 1QE       0.417300
     36 H6           5.7730    -0.5380    -1.3650 ha         1 1QE       0.133500
     37 H7           4.2360     2.9910     0.6740 ha         1 1QE       0.144500
     38 H8           5.4650     4.4210    -0.9220 ha         1 1QE       0.134000
     39 H9           6.8720     3.4110    -2.7160 ha         1 1QE       0.134000
     40 H10          7.4340    -0.3190    -2.9860 hc         1 1QE       0.054200
     41 H11          8.2730     1.2700    -3.1870 hc         1 1QE       0.054200
     42 H12          5.6460     0.4130    -4.5940 hc         1 1QE       0.054200
     43 H13          6.4610     2.0160    -4.7770 hc         1 1QE       0.054200
     44 H14          6.2820    -1.3780    -5.9820 ha         1 1QE       0.134000
     45 H15          7.7540    -2.2840    -7.7760 ha         1 1QE       0.134000
     46 H16          9.8070    -1.0830    -8.4520 ha         1 1QE       0.144500
     47 H17          8.9280     1.9990    -5.5040 ha         1 1QE       0.133500
     48 H18         10.6180     2.2230    -7.2240 hn         1 1QE       0.417300
     49 H19         12.0300     1.2870   -10.2870 hn         1 1QE       0.402900
     50 H20         14.3400    -2.8530    -6.9570 h4         1 1QE       0.173500
     51 H21         13.9170    -3.0260    -9.5530 ha         1 1QE       0.155000
     52 H22         12.3720    -1.0830   -10.4050 ha         1 1QE       0.156000
@<TRIPOS>BOND
     1     1     2 2   
     2     1    31 1   
     3     2     3 1   
     4     2     8 1   
     5     3     4 1   
     6     3     7 2   
     7     4     5 1   
     8     5     6 2   
     9     5    32 1   
    10     6     7 1   
    11     6    33 1   
    12     7    34 1   
    13     8     9 1   
    14     8    35 1   
    15     9    10 ar  
    16     9    11 ar  
    17    10    14 ar  
    18    10    36 1   
    19    11    12 ar  
    20    11    37 1   
    21    12    13 ar  
    22    12    38 1   
    23    13    14 ar  
    24    13    39 1   
    25    14    15 1   
    26    15    16 1   
    27    15    40 1   
    28    15    41 1   
    29    16    17 1   
    30    16    42 1   
    31    16    43 1   
    32    17    18 ar  
    33    17    21 ar  
    34    18    19 ar  
    35    18    44 1   
    36    19    20 ar  
    37    19    45 1   
    38    20    22 ar  
    39    20    46 1   
    40    21    22 ar  
    41    21    47 1   
    42    22    23 1   
    43    23    24 1   
    44    23    48 1   
    45    24    25 2   
    46    24    26 1   
    47    25    49 1   
    48    26    27 1   
    49    26    30 2   
    50    27    28 1   
    51    28    29 2   
    52    28    50 1   
    53    29    30 1   
    54    29    51 1   
    55    30    52 1   
@<TRIPOS>SUBSTRUCTURE
     1 1QE         1 TEMP              0 ****  ****    0 ROOT
