@<TRIPOS>MOLECULE
1QE
   52    55     1     0     0
SMALL
bcc


@<TRIPOS>ATOM
      1 N08          0.0000     0.0000     0.0000 n2         1 1QE      -0.765100
      2 C06          1.3070     0.0000     0.0000 ce         1 1QE       0.539300
      3 C05          2.0430     0.0000     1.2750 cc         1 1QE      -0.077500
      4 S01          3.7930     0.0010     1.4410 ss         1 1QE      -0.232800
      5 C02          3.6770     0.0020     3.1440 cc         1 1QE      -0.010100
      6 C03          2.3990     0.0010     3.5360 cd         1 1QE      -0.132500
      7 C04          1.4760     0.0060     2.5140 cd         1 1QE      -0.079000
      8 N07          1.9970    -0.0000    -1.1950 nu         1 1QE      -0.305100
      9 C11          1.3040    -0.1310    -2.4030 ca         1 1QE       0.013600
     10 C16          1.6860     0.6190    -3.5090 ca         1 1QE      -0.136000
     11 C12          0.2380    -1.0150    -2.5010 ca         1 1QE      -0.134500
     12 C13         -0.4440    -1.1420    -3.6960 ca         1 1QE      -0.070500
     13 C14         -0.0660    -0.3890    -4.7920 ca         1 1QE      -0.120500
     14 C15          0.9990     0.4880    -4.7000 ca         1 1QE      -0.065300
     15 C17          1.4070     1.3060    -5.8980 c3         1 1QE       0.031400
     16 C37          0.6460     2.6310    -5.8930 c3         1 1QE       0.031400
     17 C35          1.0540     3.4500    -7.0910 ca         1 1QE      -0.065300
     18 C34          2.1230     4.3230    -7.0010 ca         1 1QE      -0.120500
     19 C33          2.5000     5.0750    -8.0970 ca         1 1QE      -0.070500
     20 C32          1.8120     4.9570    -9.2890 ca         1 1QE      -0.134500
     21 C36          0.3640     3.3220    -8.2820 ca         1 1QE      -0.136000
     22 C31          0.7380     4.0800    -9.3840 ca         1 1QE       0.013600
     23 N27          0.0380     3.9590   -10.5880 nu         1 1QE      -0.305100
     24 C26          0.7130     4.0460   -11.7900 ce         1 1QE       0.539300
     25 N28          2.0160     4.1360   -11.8040 n2         1 1QE      -0.765100
     26 C25         -0.0370     4.0390   -13.0560 cc         1 1QE      -0.077500
     27 S21         -1.7860     3.9330   -13.2040 ss         1 1QE      -0.232800
     28 C22         -1.6920     3.9940   -14.9070 cc         1 1QE      -0.010100
     29 C23         -0.4220     4.0870   -15.3120 cd         1 1QE      -0.132500
     30 C24          0.5120     4.1200   -14.3000 cd         1 1QE      -0.079000
     31 H1          -0.5000     0.0000     0.8670 hn         1 1QE       0.345400
     32 H2           4.5260     0.0000     3.8170 h4         1 1QE       0.151000
     33 H3           2.1110     0.0030     4.5800 ha         1 1QE       0.123000
     34 H4           0.4050     0.0070     2.6800 ha         1 1QE       0.136500
     35 H5           2.9880     0.1450    -1.2000 hn         1 1QE       0.292800
     36 H6           2.5200     1.3060    -3.4360 ha         1 1QE       0.111000
     37 H7          -0.0590    -1.6050    -1.6420 ha         1 1QE       0.131500
     38 H8          -1.2780    -1.8290    -3.7730 ha         1 1QE       0.103000
     39 H9          -0.6030    -0.4910    -5.7280 ha         1 1QE       0.106500
     40 H10          2.4720     1.5010    -5.8560 hc         1 1QE       0.022450
     41 H11          1.1760     0.7590    -6.8040 hc         1 1QE       0.022450
     42 H12         -0.4190     2.4360    -5.9350 hc         1 1QE       0.022450
     43 H13          0.8770     3.1780    -4.9870 hc         1 1QE       0.022450
     44 H14          2.6650     4.4180    -6.0670 ha         1 1QE       0.106500
     45 H15          3.3380     5.7580    -8.0220 ha         1 1QE       0.103000
     46 H16          2.1070     5.5480   -10.1470 ha         1 1QE       0.131500
     47 H17         -0.4730     2.6380    -8.3530 ha         1 1QE       0.111000
     48 H18         -0.9420     3.7560   -10.5780 hn         1 1QE       0.292800
     49 H19          2.5270     4.1410   -10.9430 hn         1 1QE       0.345400
     50 H20         -2.5470     3.9590   -15.5710 h4         1 1QE       0.151000
     51 H21         -0.1480     4.1400   -16.3590 ha         1 1QE       0.123000
     52 H22          1.5790     4.1940   -14.4770 ha         1 1QE       0.136500
@<TRIPOS>BOND
     1     1     2 2   
     2     1    31 1   
     3     2     3 1   
     4     2     8 1   
     5     3     4 1   
     6     3     7 2   
     7     4     5 1   
     8     5     6 2   
     9     5    32 1   
    10     6     7 1   
    11     6    33 1   
    12     7    34 1   
    13     8     9 1   
    14     8    35 1   
    15     9    10 ar  
    16     9    11 ar  
    17    10    14 ar  
    18    10    36 1   
    19    11    12 ar  
    20    11    37 1   
    21    12    13 ar  
    22    12    38 1   
    23    13    14 ar  
    24    13    39 1   
    25    14    15 1   
    26    15    16 1   
    27    15    40 1   
    28    15    41 1   
    29    16    17 1   
    30    16    42 1   
    31    16    43 1   
    32    17    18 ar  
    33    17    21 ar  
    34    18    19 ar  
    35    18    44 1   
    36    19    20 ar  
    37    19    45 1   
    38    20    22 ar  
    39    20    46 1   
    40    21    22 ar  
    41    21    47 1   
    42    22    23 1   
    43    23    24 1   
    44    23    48 1   
    45    24    25 2   
    46    24    26 1   
    47    25    49 1   
    48    26    27 1   
    49    26    30 2   
    50    27    28 1   
    51    28    29 2   
    52    28    50 1   
    53    29    30 1   
    54    29    51 1   
    55    30    52 1   
@<TRIPOS>SUBSTRUCTURE
     1 1QE         1 TEMP              0 ****  ****    0 ROOT
