@<TRIPOS>MOLECULE
1QF
   63    66     1     0     0
SMALL
bcc


@<TRIPOS>ATOM
      1 N06          0.0000     0.0000     0.0000 n2         1 1QF      -0.754100
      2 C06          1.3060     0.0000     0.0000 ce         1 1QF       0.535800
      3 C05          2.0410     0.0000     1.2740 cc         1 1QF      -0.097000
      4 S01          3.7920     0.0020     1.4420 ss         1 1QF      -0.220800
      5 C02          3.6760     0.0020     3.1440 cc         1 1QF      -0.008100
      6 C03          2.3990     0.0010     3.5360 cd         1 1QF      -0.130000
      7 C04          1.4750     0.0060     2.5150 cd         1 1QF      -0.094000
      8 N07          1.9970    -0.0010    -1.1950 nu         1 1QF      -0.273600
      9 C11          1.3040     0.1190    -2.4030 ca         1 1QF       0.008600
     10 C16          0.2050     0.9630    -2.4940 ca         1 1QF      -0.075000
     11 C12          1.7150    -0.6020    -3.5170 ca         1 1QF      -0.140000
     12 C13          1.0280    -0.4810    -4.7090 ca         1 1QF      -0.083000
     13 C14         -0.0690     0.3570    -4.7950 ca         1 1QF      -0.122000
     14 C15         -0.4790     1.0800    -3.6900 ca         1 1QF      -0.072300
     15 C17         -1.6710     1.9950    -3.7880 c3         1 1QF       0.204100
     16 N18         -1.2170     3.3630    -4.0730 n3         1 1QF      -0.534600
     17 C19         -2.2890     4.3360    -3.8290 c3         1 1QF       0.136800
     18 C20         -2.4710     4.5280    -2.3220 c3         1 1QF      -0.001100
     19 C38         -0.7080     3.4730    -5.4470 c3         1 1QF       0.138800
     20 C37         -0.0200     4.8270    -5.6290 c3         1 1QF       0.023900
     21 C34          0.5020     4.9400    -7.0390 ca         1 1QF      -0.110300
     22 C35          1.7790     4.5040    -7.3390 ca         1 1QF      -0.063000
     23 C33         -0.3000     5.4750    -8.0300 ca         1 1QF      -0.063000
     24 C32          0.1740     5.5790    -9.3230 ca         1 1QF      -0.151000
     25 C31          1.4590     5.1470    -9.6260 ca         1 1QF       0.005600
     26 C36          2.2590     4.6020    -8.6300 ca         1 1QF      -0.151000
     27 N27          1.9420     5.2510   -10.9340 nu         1 1QF      -0.332600
     28 C26          3.2740     5.5420   -11.1580 ce         1 1QF       0.543800
     29 N26          4.0530     5.8490   -10.1540 n2         1 1QF      -0.775100
     30 C25          3.8150     5.5060   -12.5250 cc         1 1QF      -0.058000
     31 S21          2.9010     5.1130   -13.9740 ss         1 1QF      -0.243800
     32 C22          4.2790     5.3240   -14.9570 cc         1 1QF      -0.013100
     33 C23          5.3410     5.6660   -14.2240 cd         1 1QF      -0.135000
     34 C24          5.1060     5.7770   -12.8710 cd         1 1QF      -0.064000
     35 H1          -0.5000     0.0000     0.8670 hn         1 1QF       0.331400
     36 H2           4.5250     0.0000     3.8170 h4         1 1QF       0.152000
     37 H3           2.1110     0.0030     4.5810 ha         1 1QF       0.124000
     38 H4           0.4040     0.0060     2.6800 ha         1 1QF       0.129000
     39 H5           2.9870    -0.1500    -1.2000 hn         1 1QF       0.288800
     40 H6          -0.1170     1.5300    -1.6290 ha         1 1QF       0.135000
     41 H7           2.5750    -1.2580    -3.4510 ha         1 1QF       0.104000
     42 H8           1.3480    -1.0440    -5.5770 ha         1 1QF       0.101000
     43 H9          -0.6060     0.4500    -5.7310 ha         1 1QF       0.105000
     44 H10         -2.3210     1.6570    -4.5860 h1         1 1QF       0.017200
     45 H11         -2.2140     1.9830    -2.8510 h1         1 1QF       0.017200
     46 H13         -2.0270     5.2840    -4.2850 h1         1 1QF       0.011200
     47 H14         -3.2130     3.9710    -4.2610 h1         1 1QF       0.011200
     48 H15         -3.2090     3.8250    -1.9550 hc         1 1QF       0.007033
     49 H16         -2.8050     5.5390    -2.1240 hc         1 1QF       0.007033
     50 H17         -1.5270     4.3550    -1.8200 hc         1 1QF       0.007033
     51 H18          0.0040     2.6780    -5.6330 h1         1 1QF       0.018200
     52 H19         -1.5320     3.3900    -6.1450 h1         1 1QF       0.018200
     53 H20         -0.7320     5.6220    -5.4430 hc         1 1QF       0.027700
     54 H21          0.8040     4.9100    -4.9310 hc         1 1QF       0.027700
     55 H22          2.4020     4.0790    -6.5610 ha         1 1QF       0.109000
     56 H23         -1.3020     5.8110    -7.7930 ha         1 1QF       0.109000
     57 H24         -0.4530     6.0010   -10.0980 ha         1 1QF       0.122000
     58 H25          3.2600     4.2620    -8.8650 ha         1 1QF       0.122000
     59 H26          1.3140     5.1610   -11.7080 hn         1 1QF       0.295800
     60 H27          3.6850     5.8730    -9.2240 hn         1 1QF       0.357400
     61 H28          4.2910     5.1960   -16.0330 h4         1 1QF       0.150000
     62 H29          6.3160     5.8470   -14.6610 ha         1 1QF       0.122000
     63 H30          5.8710     6.0460   -12.1530 ha         1 1QF       0.144000
@<TRIPOS>BOND
     1     1     2 2   
     2     1    35 1   
     3     2     3 1   
     4     2     8 1   
     5     3     4 1   
     6     3     7 2   
     7     4     5 1   
     8     5     6 2   
     9     5    36 1   
    10     6     7 1   
    11     6    37 1   
    12     7    38 1   
    13     8     9 1   
    14     8    39 1   
    15     9    10 ar  
    16     9    11 ar  
    17    10    14 ar  
    18    10    40 1   
    19    11    12 ar  
    20    11    41 1   
    21    12    13 ar  
    22    12    42 1   
    23    13    14 ar  
    24    13    43 1   
    25    14    15 1   
    26    15    16 1   
    27    15    44 1   
    28    15    45 1   
    29    16    17 1   
    30    16    19 1   
    31    17    18 1   
    32    17    46 1   
    33    17    47 1   
    34    18    48 1   
    35    18    49 1   
    36    18    50 1   
    37    19    20 1   
    38    19    51 1   
    39    19    52 1   
    40    20    21 1   
    41    20    53 1   
    42    20    54 1   
    43    21    22 ar  
    44    21    23 ar  
    45    22    26 ar  
    46    22    55 1   
    47    23    24 ar  
    48    23    56 1   
    49    24    25 ar  
    50    24    57 1   
    51    25    26 ar  
    52    25    27 1   
    53    26    58 1   
    54    27    28 1   
    55    27    59 1   
    56    28    29 2   
    57    28    30 1   
    58    29    60 1   
    59    30    31 1   
    60    30    34 2   
    61    31    32 1   
    62    32    33 2   
    63    32    61 1   
    64    33    34 1   
    65    33    62 1   
    66    34    63 1   
@<TRIPOS>SUBSTRUCTURE
     1 1QF         1 TEMP              0 ****  ****    0 ROOT
