@<TRIPOS>MOLECULE
molecule
   63    66     1     0     0
SMALL
bcc


@<TRIPOS>ATOM
      1 N06          0.0000     0.0000     0.0000 n2         1 1QF      -0.878100
      2 C06          1.3060     0.0000     0.0000 ce         1 1QF       0.721800
      3 C05          2.0410     0.0000     1.2740 cc         1 1QF      -0.100000
      4 S01          3.7920     0.0020     1.4420 ss         1 1QF      -0.111800
      5 C02          3.6760     0.0020     3.1440 cd         1 1QF      -0.093100
      6 C03          2.3990     0.0010     3.5360 cc         1 1QF      -0.168000
      7 C04          1.4750     0.0060     2.5150 cc         1 1QF      -0.090000
      8 N07          1.9970    -0.0010    -1.1950 nu         1 1QF      -0.782600
      9 C11          1.3040     0.1190    -2.4030 ca         1 1QF       0.155600
     10 C16          0.2050     0.9630    -2.4940 ca         1 1QF      -0.159000
     11 C12          1.7150    -0.6020    -3.5170 ca         1 1QF      -0.168000
     12 C13          1.0280    -0.4810    -4.7090 ca         1 1QF      -0.101000
     13 C14         -0.0690     0.3570    -4.7950 ca         1 1QF      -0.151000
     14 C15         -0.4790     1.0800    -3.6900 ca         1 1QF      -0.050300
     15 C17         -1.6710     1.9950    -3.7880 c3         1 1QF       0.206100
     16 N18         -1.2170     3.3630    -4.0730 n3         1 1QF      -0.726600
     17 C19         -2.2890     4.3360    -3.8290 c3         1 1QF       0.153800
     18 C20         -2.4710     4.5280    -2.3220 c3         1 1QF      -0.094100
     19 C38         -0.7080     3.4730    -5.4470 c3         1 1QF       0.159800
     20 C37         -0.0200     4.8270    -5.6290 c3         1 1QF      -0.032100
     21 C34          0.5020     4.9400    -7.0390 ca         1 1QF      -0.107300
     22 C35          1.7790     4.5040    -7.3390 ca         1 1QF      -0.108000
     23 C33         -0.3000     5.4750    -8.0300 ca         1 1QF      -0.108000
     24 C32          0.1740     5.5790    -9.3230 ca         1 1QF      -0.144000
     25 C31          1.4590     5.1470    -9.6260 ca         1 1QF       0.163600
     26 C36          2.2590     4.6020    -8.6300 ca         1 1QF      -0.144000
     27 N27          1.9420     5.2510   -10.9340 nu         1 1QF      -0.736600
     28 C26          3.2740     5.5420   -11.1580 cf         1 1QF       0.722800
     29 N26          4.0530     5.8490   -10.1540 n2         1 1QF      -0.868100
     30 C25          3.8150     5.5060   -12.5250 cd         1 1QF      -0.155000
     31 S21          2.9010     5.1130   -13.9740 ss         1 1QF      -0.092800
     32 C22          4.2790     5.3240   -14.9570 cd         1 1QF      -0.093100
     33 C23          5.3410     5.6660   -14.2240 cc         1 1QF      -0.160000
     34 C24          5.1060     5.7770   -12.8710 cc         1 1QF      -0.122000
     35 H1          -0.5010    -0.0000    -0.8670 hn         1 1QF       0.417400
     36 H2           4.5250     0.0000     3.8170 h4         1 1QF       0.172000
     37 H3           2.1110     0.0030     4.5810 ha         1 1QF       0.152000
     38 H4           0.4040     0.0060     2.6800 ha         1 1QF       0.176000
     39 H5           2.9870    -0.1500    -1.2000 hn         1 1QF       0.441800
     40 H6          -0.1170     1.5300    -1.6290 ha         1 1QF       0.157000
     41 H7           2.5750    -1.2580    -3.4510 ha         1 1QF       0.132000
     42 H8           1.3480    -1.0440    -5.5770 ha         1 1QF       0.132000
     43 H9          -0.6060     0.4500    -5.7310 ha         1 1QF       0.132000
     44 H10         -2.3210     1.6570    -4.5860 h1         1 1QF       0.043200
     45 H11         -2.2140     1.9830    -2.8510 h1         1 1QF       0.043200
     46 H13         -2.0270     5.2840    -4.2850 h1         1 1QF       0.034700
     47 H14         -3.2130     3.9710    -4.2610 h1         1 1QF       0.034700
     48 H15         -2.8080     5.5380    -2.1250 hc         1 1QF       0.040033
     49 H16         -3.2070     3.8230    -1.9550 hc         1 1QF       0.040033
     50 H17         -1.5260     4.3580    -1.8200 hc         1 1QF       0.040033
     51 H18          0.0040     2.6780    -5.6330 h1         1 1QF       0.039700
     52 H19         -1.5320     3.3900    -6.1450 h1         1 1QF       0.039700
     53 H20         -0.7320     5.6220    -5.4430 hc         1 1QF       0.055700
     54 H21          0.8040     4.9100    -4.9310 hc         1 1QF       0.055700
     55 H22          2.4020     4.0790    -6.5610 ha         1 1QF       0.131500
     56 H23         -1.3020     5.8110    -7.7930 ha         1 1QF       0.131500
     57 H24         -0.4530     6.0010   -10.0980 ha         1 1QF       0.141500
     58 H25          3.2600     4.2620    -8.8650 ha         1 1QF       0.141500
     59 H26          1.3140     5.1610   -11.7080 hn         1 1QF       0.448800
     60 H27          5.0180     6.0590   -10.3150 hn         1 1QF       0.406400
     61 H28          4.2910     5.1960   -16.0330 h4         1 1QF       0.175000
     62 H29          6.3160     5.8470   -14.6610 ha         1 1QF       0.153000
     63 H30          5.8710     6.0460   -12.1530 ha         1 1QF       0.155000
@<TRIPOS>BOND
     1    33    32 2
     2    33    34 1
     3    32    31 1
     4    34    30 2
     5    31    30 1
     6    30    28 1
     7    28    29 2
     8    28    27 1
     9    18    17 1
    10    26    25 ar
    11    26    22 ar
    12    27    25 1
    13    25    24 ar
    14    22    21 ar
    15    24    23 ar
    16    21    23 ar
    17    21    20 1
    18    20    19 1
    19    17    16 1
    20    19    16 1
    21    16    15 1
    22     6     7 1
    23     6     5 2
    24     7     3 2
    25    15    14 1
    26    14    10 ar
    27    14    13 ar
    28     5     4 1
    29    10     9 ar
    30     3     2 1
    31     3     4 1
    32    13    12 ar
    33     9     8 1
    34     9    11 ar
    35     8     2 1
    36     2     1 2
    37    12    11 ar
    38     1    35 1
    39     5    36 1
    40     6    37 1
    41     7    38 1
    42     8    39 1
    43    10    40 1
    44    11    41 1
    45    12    42 1
    46    13    43 1
    47    15    44 1
    48    15    45 1
    49    17    46 1
    50    17    47 1
    51    18    48 1
    52    18    49 1
    53    18    50 1
    54    19    51 1
    55    19    52 1
    56    20    53 1
    57    20    54 1
    58    22    55 1
    59    23    56 1
    60    24    57 1
    61    26    58 1
    62    27    59 1
    63    29    60 1
    64    32    61 1
    65    33    62 1
    66    34    63 1
@<TRIPOS>SUBSTRUCTURE
     1 1QF         1 TEMP              0 ****  ****    0 ROOT
