@<TRIPOS>MOLECULE
1QF
   64    67     1     0     0
SMALL
bcc


@<TRIPOS>ATOM
      1 N06          0.0460    -0.2270    -0.3170 n2         1 1QF      -0.823100
      2 C06          1.3410    -0.2850    -0.3440 ce         1 1QF       0.726800
      3 C05          2.0570    -0.7160     0.8690 cc         1 1QF      -0.242000
      4 S01          1.3190    -1.6240     2.0670 ss         1 1QF       0.183200
      5 C02          2.6700    -1.6770     3.0150 cc         1 1QF      -0.185100
      6 C03          3.7330    -0.9910     2.4520 cd         1 1QF      -0.161000
      7 C04          3.3770    -0.4260     1.1970 cd         1 1QF      -0.128000
      8 N07          2.2080     0.0090    -1.4390 nu         1 1QF      -0.761600
      9 C11          1.7930     0.6260    -2.6150 ca         1 1QF       0.182600
     10 C16          0.8700     1.7000    -2.6050 ca         1 1QF      -0.168000
     11 C12          2.3580     0.2400    -3.8600 ca         1 1QF      -0.152000
     12 C13          1.9940     0.8860    -5.0330 ca         1 1QF      -0.080000
     13 C14          1.0620     1.9250    -5.0160 ca         1 1QF      -0.157000
     14 C15          0.5080     2.3250    -3.7990 ca         1 1QF      -0.135300
     15 C17         -0.5100     3.4180    -3.7760 c3         1 1QF       0.170100
     16 N18          0.1120     4.7760    -3.9830 nx         1 1QF      -0.690400
     17 C19          0.9130     5.1970    -2.7830 c3         1 1QF       0.108800
     18 C20          2.2290     5.8590    -3.1400 c3         1 1QF      -0.133100
     19 C38         -0.9570     5.7680    -4.3320 c3         1 1QF       0.102800
     20 C37         -0.4290     7.1510    -4.7150 c3         1 1QF      -0.031100
     21 C34         -1.5680     7.9870    -5.1740 ca         1 1QF      -0.180300
     22 C35         -2.3340     8.7100    -4.2520 ca         1 1QF      -0.078000
     23 C33         -1.8800     8.0800    -6.5340 ca         1 1QF      -0.078000
     24 C32         -2.9350     8.8680    -6.9720 ca         1 1QF      -0.178000
     25 C31         -3.7140     9.6060    -6.0490 ca         1 1QF       0.190600
     26 C36         -3.3920     9.5010    -4.6700 ca         1 1QF      -0.178000
     27 N27         -4.7280    10.4860    -6.4450 nu         1 1QF      -0.679600
     28 C26         -5.2980    10.3640    -7.7630 ce         1 1QF       0.681800
     29 N26         -6.4610     9.8150    -7.9100 n2         1 1QF      -0.792100
     30 C25         -4.4990    10.9710    -8.8410 cc         1 1QF      -0.248000
     31 S21         -4.5120    10.3980   -10.4270 ss         1 1QF       0.027200
     32 C22         -3.4830    11.5860   -10.9800 cc         1 1QF      -0.141100
     33 C23         -3.1040    12.4500    -9.9740 cd         1 1QF      -0.164000
     34 C24         -3.6960    12.0920    -8.7230 cd         1 1QF      -0.088000
     35 H1          -0.4230     0.0250    -1.1600 hn         1 1QF       0.394400
     36 H2           2.7070    -2.1950     3.9750 h4         1 1QF       0.185000
     37 H3           4.7230    -0.8870     2.9010 ha         1 1QF       0.164000
     38 H4           4.0690     0.1670     0.5950 ha         1 1QF       0.153000
     39 H5           3.0370    -0.5430    -1.4920 hn         1 1QF       0.450800
     40 H6           0.4420     2.0580    -1.6550 ha         1 1QF       0.149000
     41 H7           3.0910    -0.5820    -3.9020 ha         1 1QF       0.157000
     42 H8           2.4360     0.5650    -5.9900 ha         1 1QF       0.157000
     43 H9           0.7570     2.4030    -5.9580 ha         1 1QF       0.135000
     44 H10         -1.0650     3.4420    -2.7950 hx         1 1QF       0.104700
     45 H11         -1.2560     3.2540    -4.6070 hx         1 1QF       0.104700
     46 H13          0.2800     5.8960    -2.1670 hx         1 1QF       0.103200
     47 H14          1.1260     4.2730    -2.1670 hx         1 1QF       0.103200
     48 H15          2.0820     6.7790    -3.7570 hc         1 1QF       0.075367
     49 H16          2.7370     6.1530    -2.1860 hc         1 1QF       0.075367
     50 H17          2.9040     5.1590    -3.6910 hc         1 1QF       0.075367
     51 H18         -1.5410     5.3480    -5.2020 hx         1 1QF       0.101200
     52 H19         -1.6490     5.8570    -3.4470 hx         1 1QF       0.101200
     53 H20          0.3390     7.0640    -5.5300 hc         1 1QF       0.063200
     54 H21          0.0650     7.6330    -3.8280 hc         1 1QF       0.063200
     55 H22         -2.0930     8.6570    -3.1790 ha         1 1QF       0.128500
     56 H23         -1.2800     7.5290    -7.2750 ha         1 1QF       0.128500
     57 H24         -3.1550     8.9280    -8.0500 ha         1 1QF       0.151500
     58 H25         -3.9760    10.0590    -3.9210 ha         1 1QF       0.151500
     59 H26         -5.4130    10.6520    -5.7300 hn         1 1QF       0.428800
     60 H27         -6.8390     9.8410    -8.8330 hn         1 1QF       0.414400
     61 H28         -3.1670    11.6510   -12.0210 h4         1 1QF       0.182000
     62 H29         -2.4410    13.3090   -10.0980 ha         1 1QF       0.166000
     63 H30         -3.5290    12.6530    -7.8000 ha         1 1QF       0.170000
     64 H181         0.7580     4.7050    -4.7810 hn         1 1QF       0.444800
@<TRIPOS>BOND
     1     1     2 2   
     2     1    35 1   
     3     2     3 1   
     4     2     8 1   
     5     3     4 1   
     6     3     7 2   
     7     4     5 1   
     8     5     6 2   
     9     5    36 1   
    10     6     7 1   
    11     6    37 1   
    12     7    38 1   
    13     8     9 1   
    14     8    39 1   
    15     9    10 ar  
    16     9    11 ar  
    17    10    14 ar  
    18    10    40 1   
    19    11    12 ar  
    20    11    41 1   
    21    12    13 ar  
    22    12    42 1   
    23    13    14 ar  
    24    13    43 1   
    25    14    15 1   
    26    15    16 1   
    27    15    44 1   
    28    15    45 1   
    29    16    17 1   
    30    16    19 1   
    31    16    64 1   
    32    17    18 1   
    33    17    46 1   
    34    17    47 1   
    35    18    48 1   
    36    18    49 1   
    37    18    50 1   
    38    19    20 1   
    39    19    51 1   
    40    19    52 1   
    41    20    21 1   
    42    20    53 1   
    43    20    54 1   
    44    21    22 ar  
    45    21    23 ar  
    46    22    26 ar  
    47    22    55 1   
    48    23    24 ar  
    49    23    56 1   
    50    24    25 ar  
    51    24    57 1   
    52    25    26 ar  
    53    25    27 1   
    54    26    58 1   
    55    27    28 1   
    56    27    59 1   
    57    28    29 2   
    58    28    30 1   
    59    29    60 1   
    60    30    31 1   
    61    30    34 2   
    62    31    32 1   
    63    32    33 2   
    64    32    61 1   
    65    33    34 1   
    66    33    62 1   
    67    34    63 1   
@<TRIPOS>SUBSTRUCTURE
     1 1QF         1 TEMP              0 ****  ****    0 ROOT
