@<TRIPOS>MOLECULE
1QG
   44    47     1     0     0
SMALL
bcc


@<TRIPOS>ATOM
      1 N3          -0.0260     0.1530    -0.0300 nb         1 1QG      -0.667000
      2 C4           3.5150     0.6170     3.9400 cc         1 1QG       0.379800
      3 N2           3.8450     0.2790     5.2250 nd         1 1QG      -0.500800
      4 C7           4.6270     3.2910     1.5510 ca         1 1QG      -0.172000
      5 C6           3.8170     2.4800     2.3360 ca         1 1QG      -0.083000
      6 C9           6.5810     2.0350     2.2980 ca         1 1QG      -0.172000
      7 C13          1.3180     0.1820    -0.0340 ca         1 1QG       0.394200
      8 C8           6.0170     3.0690     1.5290 ca         1 1QG       0.129900
      9 C18         -4.5460    -0.5370     2.6470 c3         1 1QG       0.125400
     10 C16         -2.1630     0.0310     1.1990 c3         1 1QG       0.085200
     11 C19         -4.1520     0.8940     2.2620 c3         1 1QG       0.127800
     12 N1           2.8360    -0.4600     5.7100 na         1 1QG       0.099400
     13 C2           1.8150    -0.6270     4.7750 cd         1 1QG      -0.126300
     14 C3           2.2150     0.0500     3.6050 cc         1 1QG      -0.209300
     15 C5           4.3700     1.4450     3.1030 ca         1 1QG      -0.135500
     16 C10          5.7560     1.2340     3.0810 ca         1 1QG      -0.083000
     17 C11          1.4710     0.1030     2.3740 ca         1 1QG       0.037000
     18 C12          2.1100     0.1590     1.1270 ca         1 1QG      -0.237300
     19 C14         -0.6420     0.0920     1.1770 ca         1 1QG       0.397600
     20 C15          0.0660     0.0670     2.3940 ca         1 1QG      -0.222300
     21 C17         -2.5850    -1.3910     1.6320 c3         1 1QG       0.132400
     22 O1          -3.9990    -1.4920     1.7450 os         1 1QG      -0.414600
     23 N4          -2.7180     1.0440     2.0980 n7         1 1QG      -0.818200
     24 H7           4.1960     4.1050     0.9510 ha         1 1QG       0.150500
     25 H6           2.7280     2.6470     2.3550 ha         1 1QG       0.149500
     26 H8           7.6680     1.8710     2.2770 ha         1 1QG       0.150500
     27 H11          1.7880     0.2280    -1.0330 h4         1 1QG       0.024100
     28 H15         -5.6560    -0.6730     2.5570 h1         1 1QG       0.053200
     29 H16         -4.2120    -0.7740     3.6920 h1         1 1QG       0.053200
     30 H1          -2.5600     0.1800     0.1460 h1         1 1QG       0.059700
     31 H17         -4.7200     1.1740     1.3270 h1         1 1QG       0.040700
     32 H18         -4.4710     1.5920     3.0850 h1         1 1QG       0.040700
     33 H3           3.7200    -1.6240     7.2340 h1         1 1QG       0.062033
     34 H4           1.8880    -1.6160     7.1720 h1         1 1QG       0.062033
     35 H2           2.7960    -0.1510     7.7980 h1         1 1QG       0.062033
     36 H5           0.9110    -1.1980     4.9850 h4         1 1QG       0.181000
     37 H9           6.2000     0.4300     3.6890 ha         1 1QG       0.149500
     38 H10          3.2060     0.1890     1.0580 ha         1 1QG       0.155000
     39 H12         -0.4780     0.0330     3.3480 ha         1 1QG       0.154000
     40 H14         -2.3130    -2.1310     0.8360 h1         1 1QG       0.057700
     41 H13         -2.1050    -1.6680     2.6070 h1         1 1QG       0.057700
     42 H19         -2.4990     1.9600     1.7530 hn         1 1QG       0.371800
     43 F1           6.8140     3.8550     0.7660 f          1 1QG      -0.140900
     44 C1           2.8110    -0.9910     7.0530 c3         1 1QG       0.038600
@<TRIPOS>BOND
     1     1     7 ar  
     2     1    19 ar  
     3     2     3 2   
     4     2    14 1   
     5     2    15 1   
     6     3    12 1   
     7     4     5 ar  
     8     4     8 ar  
     9     4    24 1   
    10     5    15 ar  
    11     5    25 1   
    12     6     8 ar  
    13     6    16 ar  
    14     6    26 1   
    15     7    18 ar  
    16     7    27 1   
    17     8    43 1   
    18     9    11 1   
    19     9    22 1   
    20     9    28 1   
    21     9    29 1   
    22    10    19 1   
    23    10    21 1   
    24    10    23 1   
    25    10    30 1   
    26    11    23 1   
    27    11    31 1   
    28    11    32 1   
    29    12    13 1   
    30    12    44 1   
    31    13    14 2   
    32    13    36 1   
    33    14    17 1   
    34    15    16 ar  
    35    16    37 1   
    36    17    18 ar  
    37    17    20 ar  
    38    18    38 1   
    39    19    20 ar  
    40    20    39 1   
    41    21    22 1   
    42    21    40 1   
    43    21    41 1   
    44    23    42 1   
    45    33    44 1   
    46    34    44 1   
    47    35    44 1   
@<TRIPOS>SUBSTRUCTURE
     1 1QG         1 TEMP              0 ****  ****    0 ROOT
