@<TRIPOS>MOLECULE
1QG
   44    47     1     0     0
SMALL
bcc


@<TRIPOS>ATOM
      1 N3           0.0000     0.0000     0.0000 nb         1 1QG      -0.555000
      2 C4           3.0940    -0.8740     4.0680 cc         1 1QG       0.443800
      3 N2           3.4680    -0.5510     5.2860 nd         1 1QG      -0.641800
      4 C7           5.5620    -3.2630     2.5400 ca         1 1QG      -0.137500
      5 C6           5.0300    -2.2540     3.3160 ca         1 1QG      -0.059000
      6 C9           3.3950    -3.6880     1.5950 ca         1 1QG      -0.137500
      7 C13          1.3200     0.0000     0.0000 ca         1 1QG       0.402200
      8 C8           4.7470    -3.9790     1.6770 ca         1 1QG       0.107900
      9 C18         -4.5930    -0.0800    -0.5040 c3         1 1QG       0.212400
     10 C16         -2.2050     0.0010     1.0540 c3         1 1QG       0.037200
     11 C19         -4.1370    -1.2710     0.3420 c3         1 1QG       0.104800
     12 N1           2.6810     0.5200     5.7220 na         1 1QG       0.500400
     13 C2           1.8160     0.8420     4.7390 cd         1 1QG      -0.234300
     14 C3           2.0450     0.0010     3.6900 cc         1 1QG      -0.263300
     15 C5           3.6700    -1.9580     3.2360 ca         1 1QG      -0.132500
     16 C10          2.8540    -2.6840     2.3710 ca         1 1QG      -0.059000
     17 C11          1.3260     0.0010     2.3930 ca         1 1QG       0.048000
     18 C12          2.0270     0.0000     1.1830 ca         1 1QG      -0.219300
     19 C14         -0.7000     0.0010     1.1190 ca         1 1QG       0.370600
     20 C15         -0.0710     0.0010     2.3460 ca         1 1QG      -0.218300
     21 C17         -2.6820     1.1790     0.2000 c3         1 1QG       0.214400
     22 O1          -4.1060     1.1310     0.0820 os         1 1QG      -0.413600
     23 N4          -2.6710    -1.2560     0.4500 n7         1 1QG      -0.560200
     24 H7           6.6180    -3.4930     2.6020 ha         1 1QG       0.120500
     25 H6           5.6680    -1.6950     3.9900 ha         1 1QG       0.120500
     26 H8           2.7610    -4.2520     0.9210 ha         1 1QG       0.120500
     27 H11          1.8540    -0.0010    -0.9420 h4         1 1QG      -0.017900
     28 H15         -4.1990    -0.1790    -1.5080 h1         1 1QG       0.014200
     29 H16         -5.6760    -0.0540    -0.5360 h1         1 1QG       0.014200
     30 H1          -2.6140     0.0920     2.0530 h1         1 1QG       0.015700
     31 H17         -4.5720    -1.1980     1.3320 h1         1 1QG       0.012700
     32 H18         -4.4540    -2.1920    -0.1310 h1         1 1QG       0.012700
     33 H3           3.5710     0.7210     7.6050 h1         1 1QG       0.023700
     34 H4           2.9990     2.2310     6.8830 h1         1 1QG       0.023700
     35 H2           1.8390     1.0780     7.5540 h1         1 1QG       0.023700
     36 H5           1.0760     1.6320     4.7740 h4         1 1QG       0.150000
     37 H9           1.7970    -2.4580     2.3050 ha         1 1QG       0.120500
     38 H10          3.1100     0.0000     1.1760 ha         1 1QG       0.125000
     39 H12         -0.6520     0.0020     3.2610 ha         1 1QG       0.118000
     40 H14         -2.2360     1.1150    -0.7850 h1         1 1QG       0.023200
     41 H13         -2.3910     2.1090     0.6740 h1         1 1QG       0.023200
     42 H19         -2.3690    -2.0280     1.0110 hn         1 1QG       0.252800
     43 F1           5.2730    -4.9630     0.9150 f          1 1QG      -0.128900
     44 C1           2.7790     1.1810     7.0260 c3         1 1QG       0.021600
@<TRIPOS>BOND
     1     1     7 ar  
     2     1    19 ar  
     3     2     3 2   
     4     2    14 1   
     5     2    15 1   
     6     3    12 1   
     7     4     5 ar  
     8     4     8 ar  
     9     4    24 1   
    10     5    15 ar  
    11     5    25 1   
    12     6     8 ar  
    13     6    16 ar  
    14     6    26 1   
    15     7    18 ar  
    16     7    27 1   
    17     8    43 1   
    18     9    11 1   
    19     9    22 1   
    20     9    28 1   
    21     9    29 1   
    22    10    19 1   
    23    10    21 1   
    24    10    23 1   
    25    10    30 1   
    26    11    23 1   
    27    11    31 1   
    28    11    32 1   
    29    12    13 1   
    30    12    44 1   
    31    13    14 2   
    32    13    36 1   
    33    14    17 1   
    34    15    16 ar  
    35    16    37 1   
    36    17    18 ar  
    37    17    20 ar  
    38    18    38 1   
    39    19    20 ar  
    40    20    39 1   
    41    21    22 1   
    42    21    40 1   
    43    21    41 1   
    44    23    42 1   
    45    33    44 1   
    46    34    44 1   
    47    35    44 1   
@<TRIPOS>SUBSTRUCTURE
     1 1QG         1 TEMP              0 ****  ****    0 ROOT
