@<TRIPOS>MOLECULE
molecule
   32    34     1     0     0
SMALL
bcc


@<TRIPOS>ATOM
      1 N3           0.0000     0.0000     0.0000 nb         1 1QJ      -0.701000
      2 C4          -0.7950     3.2600     6.0630 ca         1 1QJ      -0.173500
      3 N2           2.6500     0.5550     5.7400 nc         1 1QJ      -0.503800
      4 C7           1.8110     0.8750     4.7800 cd         1 1QJ       0.414800
      5 C6           0.7990     1.9570     4.8270 ca         1 1QJ      -0.135500
      6 C9           3.0560    -0.8440     4.0520 cc         1 1QJ      -0.090300
      7 C13          1.3190     0.0000     0.0000 ca         1 1QJ       0.420600
      8 C8           2.0460    -0.0010     3.6890 cd         1 1QJ      -0.261300
      9 C1           0.4960     2.6830     3.6760 ca         1 1QJ      -0.078000
     10 C2          -0.4420     3.6930     3.7270 ca         1 1QJ      -0.173500
     11 C3          -1.0880     3.9830     4.9180 ca         1 1QJ       0.139900
     12 C5           0.1470     2.2520     6.0230 ca         1 1QJ      -0.078000
     13 N1           3.4370    -0.5170     5.3020 na         1 1QJ      -0.036600
     14 C10          1.3280    -0.0010     2.3930 ca         1 1QJ       0.030000
     15 C11         -0.0700    -0.0020     2.3470 ca         1 1QJ      -0.246300
     16 C12         -0.6990    -0.0020     1.1190 ca         1 1QJ       0.421200
     17 C14          2.0280     0.0000     1.1830 ca         1 1QJ      -0.224300
     18 C15          2.0620     0.0010    -1.3110 c3         1 1QJ       0.096100
     19 O1           3.4690     0.0010    -1.0630 oh         1 1QJ      -0.617800
     20 F1          -2.0070     4.9720     4.9630 f          1 1QJ      -0.140900
     21 H6           3.4770    -1.6350     3.4430 h4         1 1QJ       0.179000
     22 H2           1.0010     2.4580     2.7440 ha         1 1QJ       0.150500
     23 H3          -0.6760     4.2590     2.8340 ha         1 1QJ       0.147500
     24 H5           0.3750     1.6880     6.9190 ha         1 1QJ       0.150500
     25 H1           4.1600    -0.9660     5.8300 hn         1 1QJ       0.334700
     26 H7          -0.6500    -0.0040     3.2620 ha         1 1QJ       0.147000
     27 H8          -1.7820    -0.0020     1.0740 h4         1 1QJ       0.025100
     28 H9           3.1120    -0.0000     1.1740 ha         1 1QJ       0.161000
     29 H10          1.7950     0.8850    -1.8770 h1         1 1QJ       0.043700
     30 H11          1.7970    -0.8840    -1.8770 h1         1 1QJ       0.043700
     31 H12          3.9340    -0.0440    -1.8820 ho         1 1QJ       0.410000
     32 H4          -1.3020     3.4900     6.9930 ha         1 1QJ       0.147500
@<TRIPOS>BOND
     1    13     6 1
     2    13     3 1
     3     6     8 2
     4     3     4 2
     5     8     4 1
     6     8    14 1
     7     4     5 1
     8     9     5 ar
     9     9    10 ar
    10    14    15 ar
    11    14    17 ar
    12    19    18 1
    13    15    16 ar
    14     5    12 ar
    15    17     7 ar
    16    10    11 ar
    17    16     1 ar
    18     7     1 ar
    19     7    18 1
    20    12     2 ar
    21    11     2 ar
    22    11    20 1
    23     2    32 1
    24     6    21 1
    25     9    22 1
    26    10    23 1
    27    12    24 1
    28    13    25 1
    29    15    26 1
    30    16    27 1
    31    17    28 1
    32    18    29 1
    33    18    30 1
    34    19    31 1
@<TRIPOS>SUBSTRUCTURE
     1 1QJ         1 TEMP              0 ****  ****    0 ROOT
