@<TRIPOS>MOLECULE
1QJ
   32    34     1     0     0
SMALL
bcc


@<TRIPOS>ATOM
      1 N3          0.0460    0.0060   -0.2330 nb        1 1QJ     -0.672000
      2 C4         -0.9810    2.9940    6.3240 ca        1 1QJ     -0.172000
      3 N2          2.7000    0.7140    5.6910 nc        1 1QJ     -0.507800
      4 C7          1.7820    1.0200    4.7200 cd        1 1QJ      0.377800
      5 C6          0.7260    2.0010    4.9150 ca        1 1QJ     -0.135500
      6 C9          3.2100   -0.5190    3.8590 cc        1 1QJ     -0.125300
      7 C13         1.3900   -0.1680   -0.1420 ca        1 1QJ      0.397600
      8 C8          2.0720    0.2430    3.5200 cd        1 1QJ     -0.205300
      9 C1          0.4290    2.9290    3.9060 ca        1 1QJ     -0.083000
     10 C2         -0.5620    3.8850    4.0910 ca        1 1QJ     -0.172000
     11 C3         -1.2740    3.9200    5.3060 ca        1 1QJ      0.129900
     12 C5          0.0170    2.0460    6.1240 ca        1 1QJ     -0.083000
     13 N1          3.5270   -0.1910    5.1730 na        1 1QJ     -0.008600
     14 C10         1.3790    0.1900    2.2600 ca        1 1QJ      0.037000
     15 C11        -0.0080    0.3710    2.1680 ca        1 1QJ     -0.239300
     16 C12        -0.6170    0.2700    0.9050 ca        1 1QJ      0.397200
     17 C14         2.0890   -0.0820    1.0770 ca        1 1QJ     -0.219300
     18 C15         2.1400   -0.4430   -1.4220 c3        1 1QJ      0.080100
     19 O1          3.4460   -0.8950   -1.0910 oh        1 1QJ     -0.607800
     20 F1         -2.2420    4.8470    5.4940 f         1 1QJ     -0.140900
     21 H6          3.7770   -1.2440    3.2750 h4        1 1QJ      0.186000
     22 H2          0.9880    2.8950    2.9570 ha        1 1QJ      0.149500
     23 H3         -0.7940    4.6140    3.3030 ha        1 1QJ      0.150500
     24 H5          0.2500    1.3270    6.9250 ha        1 1QJ      0.149500
     25 H1          4.2800   -0.5450    5.7150 hn        1 1QJ      0.326700
     26 H7         -0.6070    0.5890    3.0630 ha        1 1QJ      0.154000
     27 H8         -1.7090    0.4050    0.7980 h4        1 1QJ      0.023100
     28 H9          3.1780   -0.2300    1.0950 ha        1 1QJ      0.160000
     29 H10         2.2100    0.5060   -2.0230 h1        1 1QJ      0.047700
     30 H11         1.6090   -1.2270   -2.0300 h1        1 1QJ      0.047700
     31 H12         3.8760   -1.1040   -1.9290 ho        1 1QJ      0.407000
     32 H4         -1.5400    3.0300    7.2700 ha        1 1QJ      0.150500
@<TRIPOS>BOND
     1    1    7 ar  
     2    1   16 ar  
     3    2   11 ar  
     4    2   12 ar  
     5    2   32 1   
     6    3    4 2   
     7    3   13 1   
     8    4    5 1   
     9    4    8 1   
    10    5    9 ar  
    11    5   12 ar  
    12    6    8 2   
    13    6   13 1   
    14    6   21 1   
    15    7   17 ar  
    16    7   18 1   
    17    8   14 1   
    18    9   10 ar  
    19    9   22 1   
    20   10   11 ar  
    21   10   23 1   
    22   11   20 1   
    23   12   24 1   
    24   13   25 1   
    25   14   15 ar  
    26   14   17 ar  
    27   15   16 ar  
    28   15   26 1   
    29   16   27 1   
    30   17   28 1   
    31   18   19 1   
    32   18   29 1   
    33   18   30 1   
    34   19   31 1   
@<TRIPOS>SUBSTRUCTURE
     1 1QJ         1 TEMP              0 ****  ****    0 ROOT
