@<TRIPOS>MOLECULE
1QJ
   32    34     1     0     0
SMALL
bcc


@<TRIPOS>ATOM
      1 N3          -0.0180    -0.1480    -0.0830 nb         1 1QJ      -0.664000
      2 C4          -0.5560    -3.1920     4.8830 ca         1 1QJ      -0.172000
      3 N2           2.9580    -0.0070     5.7280 nc         1 1QJ      -0.505800
      4 C7           1.9660    -0.4090     4.8720 cd         1 1QJ       0.379800
      5 C6           0.8680    -1.2700     5.2870 ca         1 1QJ      -0.137500
      6 C9           3.4250     0.8620     3.6880 cc         1 1QJ      -0.126300
      7 C13          1.3330    -0.0240    -0.0950 ca         1 1QJ       0.355600
      8 C8           2.2250     0.1330     3.5430 cd         1 1QJ      -0.207300
      9 C1           0.2170    -1.0450     6.5080 ca         1 1QJ      -0.082500
     10 C2          -0.8190    -1.8760     6.9210 ca         1 1QJ      -0.172000
     11 C3          -1.2090    -2.9550     6.1080 ca         1 1QJ       0.130900
     12 C5           0.4760    -2.3500     4.4840 ca         1 1QJ      -0.082500
     13 N1           3.8030     0.7390     5.0210 na         1 1QJ      -0.007600
     14 C10          1.4600     0.0180     2.3310 ca         1 1QJ       0.042000
     15 C11          0.0630    -0.1110     2.3450 ca         1 1QJ      -0.237300
     16 C12         -0.6190    -0.1910     1.1190 ca         1 1QJ       0.396200
     17 C14          2.1020     0.0610     1.0810 ca         1 1QJ      -0.236300
     18 C15          2.0460    -0.0050    -1.4270 c3         1 1QJ       0.076100
     19 O1           3.2190     0.7840    -1.3820 oh         1 1QJ      -0.597800
     20 F1          -2.2160    -3.7700     6.5030 f          1 1QJ      -0.139900
     21 H6           3.9990     1.4360     2.9620 h4         1 1QJ       0.184000
     22 H2           0.5280    -0.2050     7.1500 ha         1 1QJ       0.149500
     23 H3          -1.3330    -1.7010     7.8770 ha         1 1QJ       0.151000
     24 H5           0.9890    -2.5290     3.5260 ha         1 1QJ       0.149500
     25 H1           4.6090     1.1250     5.4550 hn         1 1QJ       0.327700
     26 H7          -0.4870    -0.1510     3.2950 ha         1 1QJ       0.156000
     27 H8          -1.7190    -0.2920     1.0950 h4         1 1QJ       0.025100
     28 H9           3.1950     0.1550     1.0080 ha         1 1QJ       0.154000
     29 H10          2.4110    -1.0420    -1.6680 h1         1 1QJ       0.068700
     30 H11          1.3700     0.3540    -2.2500 h1         1 1QJ       0.068700
     31 H12          2.9460     1.6940    -1.2120 ho         1 1QJ       0.402000
     32 H4          -0.8640    -4.0400     4.2560 ha         1 1QJ       0.151000
@<TRIPOS>BOND
     1     1     7 ar  
     2     1    16 ar  
     3     2    11 ar  
     4     2    12 ar  
     5     2    32 1   
     6     3     4 2   
     7     3    13 1   
     8     4     5 1   
     9     4     8 1   
    10     5     9 ar  
    11     5    12 ar  
    12     6     8 2   
    13     6    13 1   
    14     6    21 1   
    15     7    17 ar  
    16     7    18 1   
    17     8    14 1   
    18     9    10 ar  
    19     9    22 1   
    20    10    11 ar  
    21    10    23 1   
    22    11    20 1   
    23    12    24 1   
    24    13    25 1   
    25    14    15 ar  
    26    14    17 ar  
    27    15    16 ar  
    28    15    26 1   
    29    16    27 1   
    30    17    28 1   
    31    18    19 1   
    32    18    29 1   
    33    18    30 1   
    34    19    31 1   
@<TRIPOS>SUBSTRUCTURE
     1 1QJ         1 TEMP              0 ****  ****    0 ROOT
