@<TRIPOS>MOLECULE
1QK
   58    61     1     0     0
SMALL
bcc


@<TRIPOS>ATOM
      1 C10          0.0000     0.0000     0.0000 cc         1 1QK      -0.438300
      2 N12         -2.0470     0.0110     1.2180 nu         1 1QK      -0.418600
      3 C13         -2.8050     0.0110    -0.0370 c3         1 1QK       0.224100
      4 C15         -4.9640     1.2160     0.4070 ca         1 1QK      -0.002000
      5 C17         -6.9440    -0.0530     0.8180 ca         1 1QK      -0.261300
      6 C22          1.3770     0.1280    -2.4770 c3         1 1QK       0.164800
      7 C24          3.4940     1.0650    -3.4150 c3         1 1QK      -0.025400
      8 C26          3.5580    -0.1300    -1.2230 c3         1 1QK       0.162500
      9 C28          5.6190    -0.2470     0.1840 c3         1 1QK       0.220400
     10 C01          3.8630     1.4190     4.0140 c3         1 1QK       0.003900
     11 C02          3.3010    -0.0020     4.0860 c3         1 1QK       0.080800
     12 C03          1.8640     0.0020     3.6320 cc         1 1QK      -0.358800
     13 C04          0.7430     0.0080     4.4530 cc         1 1QK       0.523500
     14 N05         -0.3340     0.0100     3.7040 nd         1 1QK      -0.794100
     15 N06          0.0510     0.0070     2.3580 na         1 1QK       0.454200
     16 C07          1.4200     0.0010     2.3170 cd         1 1QK       0.282500
     17 N08          2.0690     0.0000     1.1430 nd         1 1QK      -0.673000
     18 C09          1.4040     0.0000     0.0000 cc         1 1QK       0.589200
     19 C11         -0.6680     0.0060     1.1900 cd         1 1QK       0.030300
     20 C14         -4.2800     0.0170     0.2680 ca         1 1QK      -0.045300
     21 C16         -6.3210     1.1740     0.6880 ca         1 1QK      -0.025000
     22 N18         -6.2630    -1.1740     0.6780 na         1 1QK       0.783800
     23 C19         -4.9700    -1.1710     0.4130 ca         1 1QK      -0.258300
     24 O20         -6.9360    -2.4120     0.8200 oh         1 1QK      -0.482200
     25 N21          2.0940    -0.0010    -1.2010 nh         1 1QK      -0.441300
     26 C23          1.9870     1.2880    -3.2700 c3         1 1QK      -0.041400
     27 C25          4.1430     1.0330    -2.0310 c3         1 1QK      -0.055400
     28 C27          4.0980    -0.0830     0.2090 c3         1 1QK      -0.080400
     29 O29          6.1100    -0.3300     1.5240 oh         1 1QK      -0.587800
     30 H1          -0.5470     0.0000    -0.9350 ha         1 1QK       0.142000
     31 H2          -2.5300    -0.0040     2.0940 hn         1 1QK       0.316800
     32 H3          -2.5580    -0.8760    -0.6070 h1         1 1QK       0.039700
     33 H4          -2.5510     0.8930    -0.6120 h1         1 1QK       0.039700
     34 H5          -4.4490     2.1630     0.3000 ha         1 1QK       0.157000
     35 H6          -8.0040    -0.0940     1.0360 h4         1 1QK       0.186000
     36 H7           1.4770    -0.7900    -3.0430 h1         1 1QK       0.019200
     37 H8           0.3300     0.3310    -2.2850 h1         1 1QK       0.019200
     38 H9           3.9220     1.8740    -3.9950 hc         1 1QK       0.021200
     39 H10          3.6710     0.1210    -3.9170 hc         1 1QK       0.021200
     40 H11          3.8310    -1.0680    -1.6890 h1         1 1QK       0.027700
     41 H12          5.8760    -1.1530    -0.3510 h1         1 1QK      -0.016800
     42 H13          6.0670     0.6050    -0.3120 h1         1 1QK      -0.016800
     43 H14          3.4570     1.9240     3.1460 hc         1 1QK       0.003367
     44 H15          3.5870     1.9620     4.9100 hc         1 1QK       0.003367
     45 H16          4.9420     1.3760     3.9360 hc         1 1QK       0.003367
     46 H17          3.8810    -0.6530     3.4440 hc         1 1QK       0.020200
     47 H18          3.3550    -0.3610     5.1070 hc         1 1QK       0.020200
     48 H19          0.7560     0.0090     5.5370 h4         1 1QK       0.016800
     49 H20         -6.8860     2.0910     0.8030 ha         1 1QK       0.159000
     50 H21         -4.4440    -2.1120     0.3050 h4         1 1QK       0.188000
     51 H22         -7.2350    -2.7050    -0.0250 ho         1 1QK       0.458000
     52 H23          1.8100     2.2170    -2.7430 hc         1 1QK       0.022200
     53 H24          1.5330     1.3310    -4.2520 hc         1 1QK       0.022200
     54 H25          5.2120     0.8960    -2.1370 hc         1 1QK       0.033200
     55 H26          3.9420     1.9660    -1.5170 hc         1 1QK       0.033200
     56 H27          3.6570    -0.8860     0.7870 hc         1 1QK       0.070700
     57 H28          3.8450     0.8690     0.6600 hc         1 1QK       0.070700
     58 H29          7.0080    -0.6180     1.5130 ho         1 1QK       0.389000
@<TRIPOS>BOND
     1     1    18 1   
     2     1    19 2   
     3     1    30 1   
     4     2     3 1   
     5     2    19 1   
     6     2    31 1   
     7     3    20 1   
     8     3    32 1   
     9     3    33 1   
    10     4    20 ar  
    11     4    21 ar  
    12     4    34 1   
    13     5    21 ar  
    14     5    22 2   
    15     5    35 1   
    16     6    25 1   
    17     6    26 1   
    18     6    36 1   
    19     6    37 1   
    20     7    26 1   
    21     7    27 1   
    22     7    38 1   
    23     7    39 1   
    24     8    25 1   
    25     8    27 1   
    26     8    28 1   
    27     8    40 1   
    28     9    28 1   
    29     9    29 1   
    30     9    41 1   
    31     9    42 1   
    32    10    11 1   
    33    10    43 1   
    34    10    44 1   
    35    10    45 1   
    36    11    12 1   
    37    11    46 1   
    38    11    47 1   
    39    12    13 1   
    40    12    16 2   
    41    13    14 2   
    42    13    48 1   
    43    14    15 1   
    44    15    16 1   
    45    15    19 1   
    46    16    17 1   
    47    17    18 2   
    48    18    25 1   
    49    20    23 ar  
    50    21    49 1   
    51    22    23 1   
    52    22    24 1   
    53    23    50 1   
    54    24    51 1   
    55    26    52 1   
    56    26    53 1   
    57    27    54 1   
    58    27    55 1   
    59    28    56 1   
    60    28    57 1   
    61    29    58 1   
@<TRIPOS>SUBSTRUCTURE
     1 1QK         1 TEMP              0 ****  ****    0 ROOT
