@<TRIPOS>MOLECULE
1QK
   58    61     1     0     0
SMALL
bcc


@<TRIPOS>ATOM
      1 C10          0.2590     0.3740    -1.0490 cc         1 1QK      -0.277300
      2 N12         -2.0930     0.2690    -0.4260 nu         1 1QK      -0.692600
      3 C13         -2.9730    -0.8400    -0.6990 c3         1 1QK       0.216100
      4 C15         -4.5040    -0.9250     1.3170 ca         1 1QK       0.001000
      5 C17         -4.5100    -2.8610     2.7710 ca         1 1QK      -0.018300
      6 C22          2.2420     0.9730    -3.0170 c3         1 1QK       0.210800
      7 C24          4.6450     0.9060    -3.7770 c3         1 1QK      -0.083400
      8 C26          4.0410     0.6260    -1.3370 c3         1 1QK       0.223500
      9 C28          3.7730     2.4530     0.4450 c3         1 1QK       0.134400
     10 C01          2.8570    -3.2120     3.0480 c3         1 1QK      -0.091100
     11 C02          2.3890    -1.7970     3.2990 c3         1 1QK      -0.001200
     12 C03          1.1760    -1.4620     2.5470 cc         1 1QK      -0.267800
     13 C04         -0.1880    -1.6430     2.9500 cc         1 1QK       0.403500
     14 N05         -1.0700    -1.2050     2.0060 nd         1 1QK      -0.682100
     15 N06         -0.3240    -0.7510     0.9820 na         1 1QK      -0.016800
     16 C07          1.0960    -0.8650     1.2530 cd         1 1QK       0.433500
     17 N08          2.0670    -0.4610     0.3880 nd         1 1QK      -0.735000
     18 C09          1.6800     0.1220    -0.7740 cc         1 1QK       0.713200
     19 C11         -0.7220    -0.0460    -0.1680 cd         1 1QK       0.182300
     20 C14         -3.5480    -1.5460     0.5030 ca         1 1QK      -0.115300
     21 C16         -4.9860    -1.5900     2.4520 ca         1 1QK      -0.133000
     22 N18         -3.5850    -3.4700     1.9460 na         1 1QK       0.122800
     23 C19         -3.0820    -2.8270     0.8400 ca         1 1QK       0.035700
     24 O20         -3.0380    -4.6160     2.3310 oh         1 1QK      -0.374200
     25 N21          2.6380     0.4600    -1.7200 nh         1 1QK      -0.759300
     26 C23          3.2090     0.6190    -4.1480 c3         1 1QK      -0.086400
     27 C25          4.9890     0.2140    -2.4780 c3         1 1QK      -0.086400
     28 C27          4.3910     2.0530    -0.8820 c3         1 1QK      -0.143400
     29 O29          4.3570     1.7810     1.5410 oh         1 1QK      -0.595800
     30 H1          -0.0440     0.9540    -1.9340 ha         1 1QK       0.179000
     31 H2          -2.4580     0.8850     0.2790 hn         1 1QK       0.404800
     32 H3          -3.8380    -0.4160    -1.2930 h1         1 1QK       0.091200
     33 H4          -2.4360    -1.5850    -1.3530 h1         1 1QK       0.091200
     34 H5          -4.8700     0.0890     1.0710 ha         1 1QK       0.189000
     35 H6          -4.8310    -3.4280     3.6680 h4         1 1QK       0.220000
     36 H7           2.1430     2.0960    -2.9550 h1         1 1QK       0.045700
     37 H8           1.2420     0.5420    -3.3070 h1         1 1QK       0.045700
     38 H9           4.8010     2.0120    -3.6750 hc         1 1QK       0.054700
     39 H10          5.3260     0.5450    -4.5920 hc         1 1QK       0.054700
     40 H11          4.2660    -0.0730    -0.4750 h1         1 1QK       0.086700
     41 H12          3.9830     3.5400     0.6470 h1         1 1QK       0.043200
     42 H13          2.6620     2.2950     0.4350 h1         1 1QK       0.043200
     43 H14          3.7780    -3.4180     3.6470 hc         1 1QK       0.037367
     44 H15          2.0720    -3.9490     3.3430 hc         1 1QK       0.037367
     45 H16          3.0960    -3.3630     1.9680 hc         1 1QK       0.037367
     46 H17          3.2100    -1.0800     3.0190 hc         1 1QK       0.057700
     47 H18          2.1880    -1.6610     4.3970 hc         1 1QK       0.057700
     48 H19         -0.5320    -2.0690     3.8950 h4         1 1QK       0.049800
     49 H20         -5.7320    -1.1170     3.1150 ha         1 1QK       0.203000
     50 H21         -2.2970    -3.3580     0.2610 h4         1 1QK       0.223000
     51 H22         -3.5730    -5.3490     1.9440 ho         1 1QK       0.460000
     52 H23          3.1000    -0.4670    -4.4080 hc         1 1QK       0.057200
     53 H24          2.9130     1.2180    -5.0480 hc         1 1QK       0.057200
     54 H25          6.0380     0.4650    -2.1720 hc         1 1QK       0.060200
     55 H26          4.9340    -0.8970    -2.6180 hc         1 1QK       0.060200
     56 H27          4.0810     2.7950    -1.6630 hc         1 1QK       0.064700
     57 H28          5.5080     2.1100    -0.7810 hc         1 1QK       0.064700
     58 H29          4.1360     0.8450     1.4660 ho         1 1QK       0.406000
@<TRIPOS>BOND
     1     1    18 1   
     2     1    19 2   
     3     1    30 1   
     4     2     3 1   
     5     2    19 1   
     6     2    31 1   
     7     3    20 1   
     8     3    32 1   
     9     3    33 1   
    10     4    20 ar  
    11     4    21 ar  
    12     4    34 1   
    13     5    21 ar  
    14     5    22 2   
    15     5    35 1   
    16     6    25 1   
    17     6    26 1   
    18     6    36 1   
    19     6    37 1   
    20     7    26 1   
    21     7    27 1   
    22     7    38 1   
    23     7    39 1   
    24     8    25 1   
    25     8    27 1   
    26     8    28 1   
    27     8    40 1   
    28     9    28 1   
    29     9    29 1   
    30     9    41 1   
    31     9    42 1   
    32    10    11 1   
    33    10    43 1   
    34    10    44 1   
    35    10    45 1   
    36    11    12 1   
    37    11    46 1   
    38    11    47 1   
    39    12    13 1   
    40    12    16 2   
    41    13    14 2   
    42    13    48 1   
    43    14    15 1   
    44    15    16 1   
    45    15    19 1   
    46    16    17 1   
    47    17    18 2   
    48    18    25 1   
    49    20    23 ar  
    50    21    49 1   
    51    22    23 1   
    52    22    24 1   
    53    23    50 1   
    54    24    51 1   
    55    26    52 1   
    56    26    53 1   
    57    27    54 1   
    58    27    55 1   
    59    28    56 1   
    60    28    57 1   
    61    29    58 1   
@<TRIPOS>SUBSTRUCTURE
     1 1QK         1 TEMP              0 ****  ****    0 ROOT
