@<TRIPOS>MOLECULE
molecule
   58    61     1     0     0
SMALL
bcc


@<TRIPOS>ATOM
      1 C10          0.0000     0.0000     0.0000 cc         1 1QK      -0.452300
      2 N12         -2.0470     0.0110     1.2180 nu         1 1QK      -0.827600
      3 C13         -2.8050     0.0110    -0.0370 c3         1 1QK       0.294100
      4 C15         -4.9640     1.2160     0.4070 ca         1 1QK       0.001000
      5 C17         -6.9440    -0.0530     0.8180 ca         1 1QK      -0.025300
      6 C22          1.3770     0.1280    -2.4770 c3         1 1QK       0.236800
      7 C24          3.4940     1.0650    -3.4150 c3         1 1QK      -0.081400
      8 C26          3.5580    -0.1300    -1.2230 c3         1 1QK       0.248500
      9 C28          5.6190    -0.2470     0.1840 c3         1 1QK       0.133400
     10 C01          3.8630     1.4190     4.0140 c3         1 1QK      -0.085100
     11 C02          3.3010    -0.0020     4.0860 c3         1 1QK       0.006800
     12 C03          1.8640     0.0020     3.6320 cc         1 1QK      -0.333800
     13 C04          0.7430     0.0080     4.4530 cc         1 1QK       0.446500
     14 N05         -0.3340     0.0100     3.7040 nd         1 1QK      -0.629100
     15 N06          0.0510     0.0070     2.3580 na         1 1QK      -0.018800
     16 C07          1.4200     0.0010     2.3170 cd         1 1QK       0.467500
     17 N08          2.0690     0.0000     1.1430 nd         1 1QK      -0.773000
     18 C09          1.4040     0.0000     0.0000 cc         1 1QK       0.760200
     19 C11         -0.6680     0.0060     1.1900 cd         1 1QK       0.341300
     20 C14         -4.2800     0.0170     0.2680 ca         1 1QK      -0.107300
     21 C16         -6.3210     1.1740     0.6880 ca         1 1QK      -0.125000
     22 N18         -6.2630    -1.1740     0.6780 na         1 1QK       0.163800
     23 C19         -4.9700    -1.1710     0.4130 ca         1 1QK      -0.021300
     24 O20         -6.9360    -2.4120     0.8200 oh         1 1QK      -0.354200
     25 N21          2.0940    -0.0010    -1.2010 nh         1 1QK      -0.805300
     26 C23          1.9870     1.2880    -3.2700 c3         1 1QK      -0.100400
     27 C25          4.1430     1.0330    -2.0310 c3         1 1QK      -0.101400
     28 C27          4.0980    -0.0830     0.2090 c3         1 1QK      -0.077400
     29 O29          6.1100    -0.3300     1.5240 oh         1 1QK      -0.605800
     30 H1          -0.5470     0.0000    -0.9350 ha         1 1QK       0.144000
     31 H2          -2.5300    -0.0040     2.0940 hn         1 1QK       0.465800
     32 H3          -2.5580    -0.8760    -0.6070 h1         1 1QK       0.074200
     33 H4          -2.5510     0.8930    -0.6120 h1         1 1QK       0.074200
     34 H5          -4.4490     2.1630     0.3000 ha         1 1QK       0.200000
     35 H6          -8.0040    -0.0940     1.0360 h4         1 1QK       0.222000
     36 H7           1.4770    -0.7900    -3.0430 h1         1 1QK       0.044200
     37 H8           0.3300     0.3310    -2.2850 h1         1 1QK       0.044200
     38 H9           3.9220     1.8740    -3.9950 hc         1 1QK       0.049200
     39 H10          3.6710     0.1210    -3.9170 hc         1 1QK       0.049200
     40 H11          3.8310    -1.0680    -1.6890 h1         1 1QK       0.051700
     41 H12          5.8760    -1.1530    -0.3510 h1         1 1QK       0.016200
     42 H13          6.0670     0.6050    -0.3120 h1         1 1QK       0.016200
     43 H14          3.4570     1.9240     3.1460 hc         1 1QK       0.035367
     44 H15          3.5870     1.9620     4.9100 hc         1 1QK       0.035367
     45 H16          4.9420     1.3760     3.9360 hc         1 1QK       0.035367
     46 H17          3.8810    -0.6530     3.4440 hc         1 1QK       0.052700
     47 H18          3.3550    -0.3610     5.1070 hc         1 1QK       0.052700
     48 H19          0.7560     0.0090     5.5370 h4         1 1QK       0.066800
     49 H20         -6.8860     2.0910     0.8030 ha         1 1QK       0.209000
     50 H21         -4.4440    -2.1120     0.3050 h4         1 1QK       0.224000
     51 H22         -7.2350    -2.7050    -0.0250 ho         1 1QK       0.457000
     52 H23          1.8100     2.2170    -2.7430 hc         1 1QK       0.051700
     53 H24          1.5330     1.3310    -4.2520 hc         1 1QK       0.051700
     54 H25          5.2120     0.8960    -2.1370 hc         1 1QK       0.058700
     55 H26          3.9420     1.9660    -1.5170 hc         1 1QK       0.058700
     56 H27          3.6570    -0.8860     0.7870 hc         1 1QK       0.090700
     57 H28          3.8450     0.8690     0.6600 hc         1 1QK       0.090700
     58 H29          7.0080    -0.6180     1.5130 ho         1 1QK       0.403000
@<TRIPOS>BOND
     1    11    10 1   
     2    11    12 1   
     3    13    12 1   
     4    13    14 2   
     5    12    16 2   
     6    14    15 1   
     7    16    15 1   
     8    16    17 1   
     9    29     9 1   
    10    15    19 1   
    11     9    28 1   
    12    17    18 2   
    13    19     2 1   
    14    19     1 2   
    15     2     3 1   
    16    18     1 1   
    17    18    25 1   
    18    28     8 1   
    19     8    25 1   
    20     8    27 1   
    21    25     6 1   
    22     3    20 1   
    23     4    20 ar  
    24     4    21 ar  
    25    27     7 1   
    26    20    23 ar  
    27    21     5 ar  
    28     6    26 1   
    29     7    26 1   
    30    23    22 1   
    31     5    22 2   
    32    22    24 1   
    33     1    30 1   
    34     2    31 1   
    35     3    32 1   
    36     3    33 1   
    37     4    34 1   
    38     5    35 1   
    39     6    36 1   
    40     6    37 1   
    41     7    38 1   
    42     7    39 1   
    43     8    40 1   
    44     9    41 1   
    45     9    42 1   
    46    10    43 1   
    47    10    44 1   
    48    10    45 1   
    49    11    46 1   
    50    11    47 1   
    51    13    48 1   
    52    21    49 1   
    53    23    50 1   
    54    24    51 1   
    55    26    52 1   
    56    26    53 1   
    57    27    54 1   
    58    27    55 1   
    59    28    56 1   
    60    28    57 1   
    61    29    58 1   
@<TRIPOS>SUBSTRUCTURE
     1 1QK         1 TEMP              0 ****  ****    0 ROOT
