@<TRIPOS>MOLECULE
1QL
   47    48     1     0     0
SMALL
bcc


@<TRIPOS>ATOM
      1 C4           0.0000     0.0000     0.0000 cc         1 1QL       0.032600
      2 C2          -1.1550    -1.4290    -1.6360 c          1 1QL       0.570100
      3 N2          -3.3510    -4.4670    -4.7610 nu         1 1QL      -0.332000
      4 C6           1.9170     0.0000     1.2550 cd         1 1QL      -0.123000
      5 O6          -3.5900    -6.9040    -6.9310 o          1 1QL      -0.851300
      6 C5           1.3340     0.0000     0.0000 cd         1 1QL      -0.114000
      7 C8          -3.2050    -3.0990    -4.2400 c3         1 1QL       0.200600
      8 O5          -5.4550    -6.5490    -5.7800 o          1 1QL      -0.851300
      9 C13         -4.0320    -4.7090    -5.9470 ce         1 1QL       0.074800
     10 C10         -4.3780    -3.8300    -6.8590 c2         1 1QL      -0.387400
     11 C11         -5.0980    -4.3500    -8.0760 c3         1 1QL       0.306600
     12 C9          -4.1180    -2.3530    -6.7940 c3         1 1QL       0.210900
     13 S1          -2.7490    -2.0330    -5.6450 ss         1 1QL      -0.423200
     14 C14         -0.8170    -3.5720    -3.7690 c          1 1QL       0.624900
     15 O4          -0.7830    -3.9300    -4.9210 o          1 1QL      -0.481100
     16 C1          -2.1060    -3.0600    -3.1770 c3         1 1QL       0.122200
     17 O           -2.4820    -3.8840    -2.0720 os         1 1QL      -0.362600
     18 C           -3.6970    -3.4820    -1.4350 c3         1 1QL       0.233700
     19 N           -1.9180    -1.6820    -2.7180 ns         1 1QL      -0.241900
     20 O1          -0.6970    -2.3480    -0.9900 o          1 1QL      -0.602100
     21 C3          -0.8690    -0.0060    -1.2300 c3         1 1QL       0.000900
     22 S           -0.5890     0.0030     1.6580 ss         1 1QL      -0.275800
     23 C7           1.0580     0.0030     2.2750 cc         1 1QL       0.010900
     24 H1           2.9900    -0.0050     1.4090 ha         1 1QL       0.119000
     25 H3           1.9150     0.0050    -0.9140 ha         1 1QL       0.120000
     26 H4          -4.1490    -2.7740    -3.8190 h2         1 1QL       0.053700
     27 H5          -5.2570    -5.4180    -7.9840 h1         1 1QL       0.058200
     28 H6          -4.4980    -4.1360    -8.9520 h1         1 1QL       0.058200
     29 H7          -4.9970    -1.7720    -6.5400 h1         1 1QL       0.026700
     30 H8          -3.7770    -2.0520    -7.7760 h1         1 1QL       0.026700
     31 H9           0.0830    -3.5980    -3.1670 h4         1 1QL      -0.002800
     32 H10         -3.6020    -3.6080    -0.3630 h1         1 1QL      -0.003633
     33 H11         -3.9230    -2.4440    -1.6500 h1         1 1QL      -0.003633
     34 H12         -4.5190    -4.0910    -1.7910 h1         1 1QL      -0.003633
     35 H13         -2.3220    -0.9290    -3.2390 hn         1 1QL       0.199500
     36 H14         -1.7600     0.5980    -1.1100 hc         1 1QL       0.035200
     37 H15         -0.2610     0.3870    -2.0350 hc         1 1QL       0.035200
     38 H16          1.3390    -0.0120     3.3210 h4         1 1QL       0.147000
     39 O2          -6.3900    -3.6960    -8.1900 os         1 1QL      -0.382900
     40 C16         -7.2060    -4.1220    -9.1730 c          1 1QL       0.412100
     41 H17         -2.9500    -5.2420    -4.2710 hn         1 1QL       0.324800
     42 O3          -6.8480    -5.0140    -9.9150 o          1 1QL      -0.459000
     43 N1          -8.4190    -3.5570    -9.3320 nz         1 1QL       0.241600
     44 H24         -8.3580    -2.5880    -9.0890 hn         1 1QL       0.237133
     45 H25         -9.0850    -3.9920    -8.7260 hn         1 1QL       0.237133
     46 C15         -4.4080    -6.1100    -6.2110 c          1 1QL       0.941800
     47 H131        -8.7180    -3.6350   -10.2840 hn         1 1QL       0.237133
@<TRIPOS>BOND
     1     1     6 2   
     2     1    21 1   
     3     1    22 1   
     4     2    19 1   
     5     2    20 2   
     6     2    21 1   
     7     3     7 1   
     8     3     9 1   
     9     3    41 1   
    10     4     6 1   
    11     4    23 2   
    12     4    24 1   
    13     5    46 1   
    14     6    25 1   
    15     7    13 1   
    16     7    16 1   
    17     7    26 1   
    18     8    46 1   
    19     9    10 2   
    20     9    46 1   
    21    10    11 1   
    22    10    12 1   
    23    11    27 1   
    24    11    28 1   
    25    11    39 1   
    26    12    13 1   
    27    12    29 1   
    28    12    30 1   
    29    14    15 2   
    30    14    16 1   
    31    14    31 1   
    32    16    17 1   
    33    16    19 1   
    34    17    18 1   
    35    18    32 1   
    36    18    33 1   
    37    18    34 1   
    38    19    35 1   
    39    21    36 1   
    40    21    37 1   
    41    22    23 1   
    42    23    38 1   
    43    39    40 1   
    44    40    42 2   
    45    40    43 1   
    46    43    44 1   
    47    43    45 1   
    48    43    47 1   
@<TRIPOS>SUBSTRUCTURE
     1 1QL         1 TEMP              0 ****  ****    0 ROOT
