@<TRIPOS>MOLECULE
1QM
   41    44     1     0     0
SMALL
bcc


@<TRIPOS>ATOM
      1 N3          -0.0420    -0.0220     0.0360 na         1 1QM       0.094400
      2 C4           0.6190    -0.0230     2.1920 cc         1 1QM      -0.203300
      3 N2           1.2980    -0.0550    -0.0170 nd         1 1QM      -0.502800
      4 C7           4.0840     0.7120     0.9460 ca         1 1QM      -0.083000
      5 C6           3.1700    -0.1240     1.6000 ca         1 1QM      -0.135500
      6 C9           5.8990    -0.2900     2.1900 ca         1 1QM       0.128900
      7 C13         -0.8870    -0.0470    -1.1340 c3         1 1QM       0.039600
      8 C8           5.4430     0.6380     1.2370 ca         1 1QM      -0.172000
      9 C18         -1.4710    -1.0490     6.6670 c3         1 1QM       0.115500
     10 C16         -2.7620    -0.5550     3.9300 c3         1 1QM       0.127400
     11 C1           0.6140     0.0380     3.6300 ca         1 1QM       0.039000
     12 C2           1.6750     0.6430     4.3210 ca         1 1QM      -0.235300
     13 C3           1.6450     0.6900     5.7230 ca         1 1QM       0.388200
     14 N1           0.6520     0.1790     6.4710 nb         1 1QM      -0.657000
     15 C5           1.7520    -0.0580     1.2740 cc         1 1QM       0.376800
     16 C10          4.9860    -1.1390     2.8450 ca         1 1QM      -0.172000
     17 C11          3.6320    -1.0500     2.5450 ca         1 1QM      -0.083000
     18 F1           7.2200    -0.3700     2.4770 f          1 1QM      -0.140900
     19 C12         -0.5110    -0.0130     1.3500 cd         1 1QM      -0.109300
     20 C14         -0.3800    -0.4120     5.8270 ca         1 1QM       0.397600
     21 C15         -0.4430    -0.4850     4.4120 ca         1 1QM      -0.013200
     22 O1          -1.4740    -1.1600     3.7760 os         1 1QM      -0.337900
     23 N4          -2.7800    -0.4860     6.4120 n7         1 1QM      -0.825200
     24 C17         -3.4380    -0.9950     5.2310 c3         1 1QM       0.136800
     25 H8          -0.5910     0.7740    -1.8410 h1         1 1QM       0.060700
     26 H10         -0.7880    -1.0340    -1.6590 h1         1 1QM       0.060700
     27 H9          -1.9500     0.1010    -0.8100 h1         1 1QM       0.060700
     28 H4           6.1630     1.2940     0.7270 ha         1 1QM       0.150500
     29 H17         -1.4300    -2.1590     6.4460 h1         1 1QM       0.055700
     30 H16         -1.2390    -0.9070     7.7630 h1         1 1QM       0.055700
     31 H11         -2.6890     0.5600     3.8630 h1         1 1QM       0.057700
     32 H12         -3.3430    -0.9610     3.0580 h1         1 1QM       0.057700
     33 H1           2.5220     1.0740     3.7670 ha         1 1QM       0.156000
     34 H2           2.4660     1.1680     6.2870 h4         1 1QM       0.025100
     35 H5           5.3520    -1.8650     3.5850 ha         1 1QM       0.150500
     36 H6           2.9130    -1.7110     3.0550 ha         1 1QM       0.149500
     37 H7          -1.5710    -0.0130     1.6050 h4         1 1QM       0.183000
     38 H13         -3.3680    -0.6130     7.2140 hn         1 1QM       0.373800
     39 H14         -4.4910    -0.5930     5.2210 h1         1 1QM       0.039700
     40 H15         -3.4950    -2.1240     5.2250 h1         1 1QM       0.039700
     41 H3           3.7280     1.4320     0.1920 ha         1 1QM       0.149500
@<TRIPOS>BOND
     1     1     3 1   
     2     1     7 1   
     3     1    19 1   
     4     2    11 1   
     5     2    15 1   
     6     2    19 2   
     7     3    15 2   
     8     4     5 ar  
     9     4     8 ar  
    10     4    41 1   
    11     5    15 1   
    12     5    17 ar  
    13     6     8 ar  
    14     6    16 ar  
    15     6    18 1   
    16     7    25 1   
    17     7    26 1   
    18     7    27 1   
    19     8    28 1   
    20     9    20 1   
    21     9    23 1   
    22     9    29 1   
    23     9    30 1   
    24    10    22 1   
    25    10    24 1   
    26    10    31 1   
    27    10    32 1   
    28    11    12 ar  
    29    11    21 ar  
    30    12    13 ar  
    31    12    33 1   
    32    13    14 ar  
    33    13    34 1   
    34    14    20 ar  
    35    16    17 ar  
    36    16    35 1   
    37    17    36 1   
    38    19    37 1   
    39    20    21 ar  
    40    21    22 1   
    41    23    24 1   
    42    23    38 1   
    43    24    39 1   
    44    24    40 1   
@<TRIPOS>SUBSTRUCTURE
     1 1QM         1 TEMP              0 ****  ****    0 ROOT
