@<TRIPOS>MOLECULE
molecule
   41    44     1     0     0
SMALL
bcc


@<TRIPOS>ATOM
      1 N3           0.0000     0.0000     0.0000 na         1 1QM       0.069400
      2 C4           0.6720    -0.0010     2.0860 cc         1 1QM      -0.253300
      3 N2           1.4000     0.0000     0.0000 nc         1 1QM      -0.506800
      4 C7           4.1700    -0.7990     1.0480 ca         1 1QM      -0.076500
      5 C6           3.2290     0.0000     1.6970 ca         1 1QM      -0.119500
      6 C9           5.8680    -0.0000     2.5370 ca         1 1QM       0.135900
      7 C13         -0.8570    -0.0050    -1.1880 c3         1 1QM       0.063600
      8 C8           5.4830    -0.7960     1.4690 ca         1 1QM      -0.172000
      9 C18          1.7250    -2.2260     6.4480 c3         1 1QM       0.115500
     10 C16          0.8120    -3.3710     3.7680 c3         1 1QM       0.145400
     11 C1           0.6730    -0.0010     3.5690 ca         1 1QM       0.019000
     12 C2           0.1840     1.0910     4.2910 ca         1 1QM      -0.244300
     13 C3           0.2000     1.0450     5.6710 ca         1 1QM       0.407200
     14 N1           0.6780    -0.0050     6.3130 nb         1 1QM      -0.676000
     15 C5           1.8160     0.0000     1.2480 cd         1 1QM       0.421800
     16 C10          4.9380     0.7960     3.1840 ca         1 1QM      -0.172000
     17 C11          3.6220     0.7990     2.7690 ca         1 1QM      -0.076500
     18 F1           7.1560    -0.0010     2.9460 f          1 1QM      -0.143900
     19 C12         -0.4270    -0.0000     1.2790 cd         1 1QM      -0.096300
     20 C14          1.1560    -1.0530     5.6690 ca         1 1QM       0.409600
     21 C15          1.1630    -1.0980     4.2920 ca         1 1QM       0.011800
     22 O1           1.6260    -2.1980     3.6440 os         1 1QM      -0.331900
     23 N4           0.8520    -3.3900     6.2610 n7         1 1QM      -0.824200
     24 C17          1.1570    -4.1310     5.0380 c3         1 1QM       0.124800
     25 H8          -1.5170     0.8540    -1.1610 h1         1 1QM       0.056367
     26 H10         -0.2410     0.0410    -2.0780 h1         1 1QM       0.056367
     27 H9          -1.4470    -0.9140    -1.2030 h1         1 1QM       0.056367
     28 H4           6.2140    -1.4170     0.9660 ha         1 1QM       0.145500
     29 H17          2.7180    -2.4550     6.0810 h1         1 1QM       0.057200
     30 H16          1.7700    -1.9730     7.5000 h1         1 1QM       0.057200
     31 H11         -0.2260    -3.0670     3.8200 h1         1 1QM       0.060700
     32 H12          1.0030    -4.0160     2.9190 h1         1 1QM       0.060700
     33 H1          -0.2110     1.9580     3.7760 ha         1 1QM       0.142000
     34 H2          -0.1780     1.8880     6.2360 h4         1 1QM       0.023100
     35 H5           5.2440     1.4170     4.0170 ha         1 1QM       0.145500
     36 H6           2.8950     1.4220     3.2760 ha         1 1QM       0.145500
     37 H7          -1.4590    -0.0000     1.6070 h4         1 1QM       0.174000
     38 H13          0.9360    -4.0000     7.0500 hn         1 1QM       0.365800
     39 H14          0.5970    -5.0580     5.0490 h1         1 1QM       0.038700
     40 H15          2.2160    -4.3580     5.0280 h1         1 1QM       0.038700
     41 H3           3.8700    -1.4220     0.2140 ha         1 1QM       0.145500
@<TRIPOS>BOND
     1     7     1 1   
     2     4     8 ar  
     3     4     5 ar  
     4     8     6 ar  
     5     3     1 1   
     6     3    15 2   
     7     1    19 1   
     8    15     5 1   
     9    15     2 1   
    10     5    17 ar  
    11     6    18 1   
    12     6    16 ar  
    13    19     2 2   
    14     2    11 1   
    15    17    16 ar  
    16    12    11 ar  
    17    12    13 ar  
    18    11    21 ar  
    19    13    14 ar  
    20    21    22 1   
    21    21    20 ar  
    22    10    22 1   
    23    10    24 1   
    24    14    20 ar  
    25    20     9 1   
    26    24    23 1   
    27    23     9 1   
    28     4    41 1   
    29     7    25 1   
    30     7    26 1   
    31     7    27 1   
    32     8    28 1   
    33     9    29 1   
    34     9    30 1   
    35    10    31 1   
    36    10    32 1   
    37    12    33 1   
    38    13    34 1   
    39    16    35 1   
    40    17    36 1   
    41    19    37 1   
    42    23    38 1   
    43    24    39 1   
    44    24    40 1   
@<TRIPOS>SUBSTRUCTURE
     1 1QM         1 TEMP              0 ****  ****    0 ROOT
