@<TRIPOS>MOLECULE
1QM
   41    44     1     0     0
SMALL
bcc


@<TRIPOS>ATOM
      1 N3           0.0000     0.0000     0.0000 na         1 1QM       0.495400
      2 C4           0.6720    -0.0010     2.0860 cc         1 1QM      -0.250300
      3 N2           1.4000     0.0000     0.0000 nd         1 1QM      -0.644800
      4 C7           4.1700    -0.7990     1.0480 ca         1 1QM      -0.055500
      5 C6           3.2290     0.0000     1.6970 ca         1 1QM      -0.118500
      6 C9           5.8680    -0.0000     2.5370 ca         1 1QM       0.103900
      7 C13         -0.8570    -0.0050    -1.1880 c3         1 1QM       0.022600
      8 C8           5.4830    -0.7960     1.4690 ca         1 1QM      -0.137000
      9 C18          1.7250    -2.2260     6.4480 c3         1 1QM       0.099500
     10 C16          0.8120    -3.3710     3.7680 c3         1 1QM       0.212400
     11 C1           0.6730    -0.0010     3.5690 ca         1 1QM       0.025000
     12 C2           0.1840     1.0910     4.2910 ca         1 1QM      -0.213300
     13 C3           0.2000     1.0450     5.6710 ca         1 1QM       0.386200
     14 N1           0.6780    -0.0050     6.3130 nb         1 1QM      -0.556000
     15 C5           1.8160     0.0000     1.2480 cc         1 1QM       0.451800
     16 C10          4.9380     0.7960     3.1840 ca         1 1QM      -0.137000
     17 C11          3.6220     0.7990     2.7690 ca         1 1QM      -0.055500
     18 F1           7.1560    -0.0010     2.9460 f          1 1QM      -0.131900
     19 C12         -0.4270    -0.0000     1.2790 cd         1 1QM      -0.239300
     20 C14          1.1560    -1.0530     5.6690 ca         1 1QM       0.347600
     21 C15          1.1630    -1.0980     4.2920 ca         1 1QM       0.024800
     22 O1           1.6260    -2.1980     3.6440 os         1 1QM      -0.311900
     23 N4           0.8520    -3.3900     6.2610 n7         1 1QM      -0.571200
     24 C17          1.1570    -4.1310     5.0380 c3         1 1QM       0.102800
     25 H8          -1.5170     0.8540    -1.1610 h1         1 1QM       0.022367
     26 H10         -0.2410     0.0410    -2.0780 h1         1 1QM       0.022367
     27 H9          -1.4470    -0.9140    -1.2030 h1         1 1QM       0.022367
     28 H4           6.2140    -1.4170     0.9660 ha         1 1QM       0.118000
     29 H17          2.7180    -2.4550     6.0810 h1         1 1QM       0.024700
     30 H16          1.7700    -1.9730     7.5000 h1         1 1QM       0.024700
     31 H11         -0.2260    -3.0670     3.8200 h1         1 1QM       0.018700
     32 H12          1.0030    -4.0160     2.9190 h1         1 1QM       0.018700
     33 H1          -0.2110     1.9580     3.7760 ha         1 1QM       0.117000
     34 H2          -0.1780     1.8880     6.2360 h4         1 1QM      -0.019900
     35 H5           5.2440     1.4170     4.0170 ha         1 1QM       0.118000
     36 H6           2.8950     1.4220     3.2760 ha         1 1QM       0.116500
     37 H7          -1.4590    -0.0000     1.6070 h4         1 1QM       0.149000
     38 H13          0.9360    -4.0000     7.0500 hn         1 1QM       0.256800
     39 H14          0.5970    -5.0580     5.0490 h1         1 1QM       0.012700
     40 H15          2.2160    -4.3580     5.0280 h1         1 1QM       0.012700
     41 H3           3.8700    -1.4220     0.2140 ha         1 1QM       0.116500
@<TRIPOS>BOND
     1     1     3 1   
     2     1     7 1   
     3     1    19 1   
     4     2    11 1   
     5     2    15 1   
     6     2    19 2   
     7     3    15 2   
     8     4     5 ar  
     9     4     8 ar  
    10     4    41 1   
    11     5    15 1   
    12     5    17 ar  
    13     6     8 ar  
    14     6    16 ar  
    15     6    18 1   
    16     7    25 1   
    17     7    26 1   
    18     7    27 1   
    19     8    28 1   
    20     9    20 1   
    21     9    23 1   
    22     9    29 1   
    23     9    30 1   
    24    10    22 1   
    25    10    24 1   
    26    10    31 1   
    27    10    32 1   
    28    11    12 ar  
    29    11    21 ar  
    30    12    13 ar  
    31    12    33 1   
    32    13    14 ar  
    33    13    34 1   
    34    14    20 ar  
    35    16    17 ar  
    36    16    35 1   
    37    17    36 1   
    38    19    37 1   
    39    20    21 ar  
    40    21    22 1   
    41    23    24 1   
    42    23    38 1   
    43    24    39 1   
    44    24    40 1   
@<TRIPOS>SUBSTRUCTURE
     1 1QM         1 TEMP              0 ****  ****    0 ROOT
