@<TRIPOS>MOLECULE
1QN
   39    41     1     0     0
SMALL
bcc


@<TRIPOS>ATOM
      1 N3           0.0000     0.0000     0.0000 nc         1 1QN      -0.641800
      2 C4          -2.1960    -0.6880     2.8510 ca         1 1QN      -0.059000
      3 N2           1.4000     0.0000     0.0000 na         1 1QN       0.498400
      4 C7           0.7290    -0.0000     3.5680 ca         1 1QN       0.047000
      5 C6          -2.7940     0.6950     0.9670 ca         1 1QN      -0.059000
      6 C9          -0.0210     0.8780     5.6650 ca         1 1QN       0.405200
      7 C13          0.7280     0.0010     2.0850 cd         1 1QN      -0.264300
      8 C8          -0.0460     0.9160     4.2870 ca         1 1QN      -0.222300
      9 C16          2.2560     0.0000    -1.1900 c3         1 1QN       0.022600
     10 C1          -4.1080     0.6920     1.3890 ca         1 1QN      -0.138000
     11 C2          -4.4690     0.0010     2.5340 ca         1 1QN       0.106900
     12 C3          -3.5110    -0.6840     3.2660 ca         1 1QN      -0.138000
     13 C5          -1.8300     0.0020     1.6970 ca         1 1QN      -0.130500
     14 N1           0.7220    -0.0070     6.3040 nb         1 1QN      -0.586000
     15 C10          1.4720    -0.8840     5.6640 ca         1 1QN       0.372600
     16 C11          1.5000    -0.9190     4.2860 ca         1 1QN      -0.203300
     17 C12         -0.4160     0.0010     1.2460 cd         1 1QN       0.442800
     18 C14          1.8270     0.0000     1.2780 cc         1 1QN      -0.231300
     19 C15          2.2980    -1.8700     6.4500 c3         1 1QN       0.099500
     20 N4           3.5790    -1.2510     6.8190 n7         1 1QN      -0.586200
     21 C17          4.4110    -2.1840     7.5880 c3         1 1QN       0.179100
     22 H3          -1.4490    -1.2260     3.4220 ha         1 1QN       0.121000
     23 H4          -2.5140     1.2340     0.0710 ha         1 1QN       0.121000
     24 H6          -0.6200     1.5810     6.2300 h4         1 1QN      -0.019900
     25 H5          -0.6570     1.6450     3.7680 ha         1 1QN       0.124000
     26 H13          1.6380    -0.0050    -2.0790 h1         1 1QN       0.023367
     27 H12          2.8780     0.8870    -1.1870 h1         1 1QN       0.023367
     28 H14          2.8860    -0.8810    -1.1820 h1         1 1QN       0.023367
     29 H1          -4.8590     1.2280     0.8220 ha         1 1QN       0.119500
     30 H2          -3.7980    -1.2220     4.1610 ha         1 1QN       0.119500
     31 H7           2.1190    -1.6410     3.7670 ha         1 1QN       0.121000
     32 H8           2.8590     0.0000     1.6060 h4         1 1QN       0.152000
     33 H9           2.4830    -2.7490     5.8450 h1         1 1QN       0.015200
     34 H10          1.7630    -2.1550     7.3470 h1         1 1QN       0.015200
     35 H11          3.4070    -0.4290     7.3640 hn         1 1QN       0.261800
     36 H15          3.8920    -2.4690     8.4950 h1         1 1QN      -0.001967
     37 H16          4.6080    -3.0670     6.9920 h1         1 1QN      -0.001967
     38 H17          5.3480    -1.7050     7.8440 h1         1 1QN      -0.001967
     39 F1          -5.7550     0.0020     2.9440 f          1 1QN      -0.128900
@<TRIPOS>BOND
     1     1     3 1   
     2     1    17 2   
     3     2    12 ar  
     4     2    13 ar  
     5     2    22 1   
     6     3     9 1   
     7     3    18 1   
     8     4     7 1   
     9     4     8 ar  
    10     4    16 ar  
    11     5    10 ar  
    12     5    13 ar  
    13     5    23 1   
    14     6     8 ar  
    15     6    14 ar  
    16     6    24 1   
    17     7    17 1   
    18     7    18 2   
    19     8    25 1   
    20     9    26 1   
    21     9    27 1   
    22     9    28 1   
    23    10    11 ar  
    24    10    29 1   
    25    11    12 ar  
    26    11    39 1   
    27    12    30 1   
    28    13    17 1   
    29    14    15 ar  
    30    15    16 ar  
    31    15    19 1   
    32    16    31 1   
    33    18    32 1   
    34    19    20 1   
    35    19    33 1   
    36    19    34 1   
    37    20    21 1   
    38    20    35 1   
    39    21    36 1   
    40    21    37 1   
    41    21    38 1   
@<TRIPOS>SUBSTRUCTURE
     1 1QN         1 TEMP              0 ****  ****    0 ROOT
