@<TRIPOS>MOLECULE
1QN
   40    42     1     0     0
SMALL
bcc


@<TRIPOS>ATOM
      1 N3          -0.2410     0.4390    -0.2990 nc         1 1QN      -0.475800
      2 C4          -2.3240     1.1700     2.4190 ca         1 1QN      -0.082500
      3 N2           1.0870     0.5430    -0.4690 na         1 1QN       0.116400
      4 C7           1.0560     0.1280     3.1520 ca         1 1QN       0.096000
      5 C6          -2.5860    -0.9660     1.3010 ca         1 1QN      -0.082500
      6 C9           0.4550    -0.6740     5.3590 ca         1 1QN       0.428200
      7 C13          0.8060     0.2920     1.7520 cd         1 1QN      -0.260300
      8 C8           0.1480    -0.5350     3.9930 ca         1 1QN      -0.212300
      9 C16          1.7100     0.7220    -1.7640 c3         1 1QN       0.029600
     10 C1          -3.8680    -1.0930     1.8260 ca         1 1QN      -0.170500
     11 C2          -4.3810    -0.0780     2.6560 ca         1 1QN       0.144900
     12 C3          -3.6050     1.0600     2.9490 ca         1 1QN      -0.170500
     13 C5          -1.8040     0.1560     1.6040 ca         1 1QN      -0.161500
     14 N1           1.5790    -0.2020     5.9210 nb         1 1QN      -0.725000
     15 C10          2.4550     0.4400     5.1060 ca         1 1QN       0.330600
     16 C11          2.2460     0.6220     3.7320 ca         1 1QN      -0.226300
     17 C12         -0.4660     0.2840     1.0390 cd         1 1QN       0.401800
     18 C14          1.7740     0.4690     0.7360 cc         1 1QN      -0.111300
     19 C15          3.6990     1.0500     5.7070 c3         1 1QN       0.072500
     20 N4           4.1340     0.4240     6.9950 ny         1 1QN      -0.749000
     21 C17          4.7460    -0.9110     6.8040 c3         1 1QN       0.080100
     22 F1          -5.6260    -0.1950     3.1730 f          1 1QN      -0.127900
     23 H3          -1.7230     2.0670     2.6320 ha         1 1QN       0.147500
     24 H4          -2.1890    -1.7480     0.6360 ha         1 1QN       0.147500
     25 H6          -0.2420    -1.1940     6.0450 h4         1 1QN       0.046100
     26 H5          -0.7950    -0.9380     3.5910 ha         1 1QN       0.182000
     27 H13          1.3650     1.6890    -2.2210 h1         1 1QN       0.072033
     28 H12          1.4270    -0.1260    -2.4440 h1         1 1QN       0.072033
     29 H14          2.8220     0.7420    -1.6260 h1         1 1QN       0.072033
     30 H1          -4.4880    -1.9700     1.5910 ha         1 1QN       0.159000
     31 H2          -4.0230     1.8550     3.5840 ha         1 1QN       0.159000
     32 H7           2.9830     1.1520     3.1120 ha         1 1QN       0.149000
     33 H8           2.8610     0.5270     0.7950 h4         1 1QN       0.177000
     34 H9           4.5520     0.9690     4.9740 hx         1 1QN       0.108200
     35 H10          3.4930     2.1420     5.9190 hx         1 1QN       0.108200
     36 H11          4.8120     1.0470     7.4460 hn         1 1QN       0.463300
     37 H15          4.0060    -1.5930     6.3030 hx         1 1QN       0.109367
     38 H16          5.6630    -0.8180     6.1630 hx         1 1QN       0.109367
     39 H17          5.0260    -1.3330     7.8070 hx         1 1QN       0.109367
     40 H42          3.3160     0.3320     7.6170 hn         1 1QN       0.463300
@<TRIPOS>BOND
     1     1     3 1   
     2     1    17 2   
     3     2    12 ar  
     4     2    13 ar  
     5     2    23 1   
     6     3     9 1   
     7     3    18 1   
     8     4     7 1   
     9     4     8 ar  
    10     4    16 ar  
    11     5    10 ar  
    12     5    13 ar  
    13     5    24 1   
    14     6     8 ar  
    15     6    14 ar  
    16     6    25 1   
    17     7    17 1   
    18     7    18 2   
    19     8    26 1   
    20     9    27 1   
    21     9    28 1   
    22     9    29 1   
    23    10    11 ar  
    24    10    30 1   
    25    11    12 ar  
    26    11    22 1   
    27    12    31 1   
    28    13    17 1   
    29    14    15 ar  
    30    15    16 ar  
    31    15    19 1   
    32    16    32 1   
    33    18    33 1   
    34    19    20 1   
    35    19    34 1   
    36    19    35 1   
    37    20    21 1   
    38    20    36 1   
    39    20    40 1   
    40    21    37 1   
    41    21    38 1   
    42    21    39 1   
@<TRIPOS>SUBSTRUCTURE
     1 1QN         1 TEMP              0 ****  ****    0 ROOT
