@<TRIPOS>MOLECULE
molecule
   39    41     1     0     0
SMALL
bcc


@<TRIPOS>ATOM
      1 N3           0.0000     0.0000     0.0000 nc         1 1QN      -0.503800
      2 C4          -2.1960    -0.6880     2.8510 ca         1 1QN      -0.079000
      3 N2           1.4000     0.0000     0.0000 na         1 1QN       0.071400
      4 C7           0.7290    -0.0000     3.5680 ca         1 1QN       0.035000
      5 C6          -2.7940     0.6950     0.9670 ca         1 1QN      -0.079000
      6 C9          -0.0210     0.8780     5.6650 ca         1 1QN       0.420200
      7 C13          0.7280     0.0010     2.0850 cd         1 1QN      -0.265300
      8 C8          -0.0460     0.9160     4.2870 ca         1 1QN      -0.245300
      9 C16          2.2560     0.0000    -1.1900 c3         1 1QN       0.062600
     10 C1          -4.1080     0.6920     1.3890 ca         1 1QN      -0.173500
     11 C2          -4.4690     0.0010     2.5340 ca         1 1QN       0.138900
     12 C3          -3.5110    -0.6840     3.2660 ca         1 1QN      -0.173500
     13 C5          -1.8300     0.0020     1.6970 ca         1 1QN      -0.133500
     14 N1           0.7220    -0.0070     6.3040 nb         1 1QN      -0.702000
     15 C10          1.4720    -0.8840     5.6640 ca         1 1QN       0.424600
     16 C11          1.5000    -0.9190     4.2860 ca         1 1QN      -0.231300
     17 C12         -0.4160     0.0010     1.2460 cd         1 1QN       0.411800
     18 C14          1.8270     0.0000     1.2780 cc         1 1QN      -0.088300
     19 C15          2.2980    -1.8700     6.4500 c3         1 1QN       0.112500
     20 N4           3.5790    -1.2510     6.8190 n7         1 1QN      -0.819200
     21 C17          4.4110    -2.1840     7.5880 c3         1 1QN       0.146100
     22 H3          -1.4490    -1.2260     3.4220 ha         1 1QN       0.150000
     23 H4          -2.5140     1.2340     0.0710 ha         1 1QN       0.150000
     24 H6          -0.6200     1.5810     6.2300 h4         1 1QN       0.024100
     25 H5          -0.6570     1.6450     3.7680 ha         1 1QN       0.147000
     26 H13          1.6380    -0.0050    -2.0790 h1         1 1QN       0.057367
     27 H12          2.8780     0.8870    -1.1870 h1         1 1QN       0.057367
     28 H14          2.8860    -0.8810    -1.1820 h1         1 1QN       0.057367
     29 H1          -4.8590     1.2280     0.8220 ha         1 1QN       0.147500
     30 H2          -3.7980    -1.2220     4.1610 ha         1 1QN       0.147500
     31 H7           2.1190    -1.6410     3.7670 ha         1 1QN       0.143000
     32 H8           2.8590     0.0000     1.6060 h4         1 1QN       0.179000
     33 H9           2.4830    -2.7490     5.8450 h1         1 1QN       0.046200
     34 H10          1.7630    -2.1550     7.3470 h1         1 1QN       0.046200
     35 H11          3.4070    -0.4290     7.3640 hn         1 1QN       0.364800
     36 H15          3.8920    -2.4690     8.4950 h1         1 1QN       0.030700
     37 H16          4.6080    -3.0670     6.9920 h1         1 1QN       0.030700
     38 H17          5.3480    -1.7050     7.8440 h1         1 1QN       0.030700
     39 F1          -5.7550     0.0020     2.9440 f          1 1QN      -0.140900
@<TRIPOS>BOND
     1     5    10 ar  
     2     5    13 ar  
     3    10    11 ar  
     4     9     3 1   
     5     1     3 1   
     6     1    17 2   
     7     3    18 1   
     8    13    17 1   
     9    13     2 ar  
    10    17     7 1   
    11    11    39 1   
    12    11    12 ar  
    13    18     7 2   
    14     7     4 1   
    15     2    12 ar  
    16     8     4 ar  
    17     8     6 ar  
    18     4    16 ar  
    19     6    14 ar  
    20    16    15 ar  
    21    14    15 ar  
    22    15    19 1   
    23    21    20 1   
    24    20    19 1   
    25     2    22 1   
    26     5    23 1   
    27     6    24 1   
    28     8    25 1   
    29     9    26 1   
    30     9    27 1   
    31     9    28 1   
    32    10    29 1   
    33    12    30 1   
    34    16    31 1   
    35    18    32 1   
    36    19    33 1   
    37    19    34 1   
    38    20    35 1   
    39    21    36 1   
    40    21    37 1   
    41    21    38 1   
@<TRIPOS>SUBSTRUCTURE
     1 1QN         1 TEMP              0 ****  ****    0 ROOT
