@<TRIPOS>MOLECULE
molecule
   34    36     1     0     0
SMALL
bcc


@<TRIPOS>ATOM
      1 N1           0.0000     0.0000     0.0000 nu         1 1QO      -0.896900
      2 C2           1.3840     0.0000     0.0000 ca         1 1QO       0.947900
      3 N3           2.0290     0.0000     1.1550 nb         1 1QO      -0.803000
      4 C4           4.0670     0.0010    -0.0160 ca         1 1QO      -0.440600
      5 N4           6.1100     0.1060     3.6740 nb         1 1QO      -0.694000
      6 C5           3.3590     0.0010     1.1880 cp         1 1QO       0.566800
      7 C6           4.0800     0.0010     2.4850 cp         1 1QO      -0.280800
      8 C11         -2.2150    -0.0080    -0.9930 ca         1 1QO      -0.121300
      9 C12         -2.9000     1.1860    -0.8630 ca         1 1QO      -0.110000
     10 C13         -4.2590     1.1790    -0.6100 ca         1 1QO      -0.131000
     11 C1          -0.7330    -0.0000    -1.2680 c3         1 1QO       0.296100
     12 N2           2.0290    -0.0040    -1.1580 nb         1 1QO      -0.803000
     13 C3           3.3520    -0.0040    -1.2010 ca         1 1QO       0.504200
     14 C7           3.3770    -0.1050     3.6880 ca         1 1QO      -0.049000
     15 C8           4.0960    -0.1010     4.8710 ca         1 1QO      -0.265300
     16 C9           5.4740     0.0080     4.8250 ca         1 1QO       0.430200
     17 C10          5.4690     0.1060     2.5230 ca         1 1QO       0.441200
     18 C14         -4.9330    -0.0220    -0.4870 ca         1 1QO      -0.118000
     19 C15         -4.2470    -1.2150    -0.6170 ca         1 1QO      -0.131000
     20 C16         -2.8880    -1.2080    -0.8640 ca         1 1QO      -0.110000
     21 H3          -0.5000     0.0020     0.8670 hn         1 1QO       0.460800
     22 H5           5.1510     0.0020    -0.0220 ha         1 1QO       0.145000
     23 H10         -2.3720     2.1270    -0.9600 ha         1 1QO       0.135000
     24 H11         -4.7960     2.1140    -0.5080 ha         1 1QO       0.132000
     25 H2          -0.4750     0.8870    -1.8340 h1         1 1QO       0.057200
     26 H1          -0.4670    -0.8820    -1.8390 h1         1 1QO       0.057200
     27 H4           3.8690    -0.0050    -2.1520 h4         1 1QO       0.028100
     28 H6           2.2970    -0.1890     3.6950 ha         1 1QO       0.161000
     29 H7           3.5850    -0.1810     5.8230 ha         1 1QO       0.141000
     30 H8           6.0400     0.0110     5.7490 h4         1 1QO       0.024100
     31 H9           6.0270     0.1890     1.5980 h4         1 1QO       0.027100
     32 H12         -5.9980    -0.0280    -0.2910 ha         1 1QO       0.131000
     33 H13         -4.7740    -2.1560    -0.5190 ha         1 1QO       0.132000
     34 H14         -2.3510    -2.1440    -0.9650 ha         1 1QO       0.135000
@<TRIPOS>BOND
     1    13    12 ar
     2    13     4 ar
     3    12     2 ar
     4     4     6 ar
     5     2     1 1
     6     2     3 ar
     7     1    11 1
     8     6     3 ar
     9     6     7 1
    10    20    19 ar
    11    20     8 ar
    12    11     8 1
    13    19    18 ar
    14    14     7 ar
    15    14    15 ar
    16     7    17 ar
    17     8     9 ar
    18    15    16 ar
    19    17     5 ar
    20    18    10 ar
    21     9    10 ar
    22    16     5 ar
    23     1    21 1
    24     4    22 1
    25     9    23 1
    26    10    24 1
    27    11    25 1
    28    11    26 1
    29    13    27 1
    30    14    28 1
    31    15    29 1
    32    16    30 1
    33    17    31 1
    34    18    32 1
    35    19    33 1
    36    20    34 1
@<TRIPOS>SUBSTRUCTURE
     1 1QO         1 TEMP              0 ****  ****    0 ROOT
