@<TRIPOS>MOLECULE
1QO
   34    36     1     0     0
SMALL
bcc


@<TRIPOS>ATOM
      1 N1           0.0000     0.0000     0.0000 nu         1 1QO      -0.485900
      2 C2           1.3840     0.0000     0.0000 ca         1 1QO       0.725900
      3 N3           2.0290     0.0000     1.1550 nb         1 1QO      -0.694000
      4 C4           4.0670     0.0010    -0.0160 ca         1 1QO      -0.422600
      5 N4           6.1100     0.1060     3.6740 nb         1 1QO      -0.588000
      6 C5           3.3590     0.0010     1.1880 cp         1 1QO       0.530800
      7 C6           4.0800     0.0010     2.4850 cp         1 1QO      -0.282800
      8 C11         -2.2150    -0.0080    -0.9930 ca         1 1QO      -0.126300
      9 C12         -2.9000     1.1860    -0.8630 ca         1 1QO      -0.083000
     10 C13         -4.2590     1.1790    -0.6100 ca         1 1QO      -0.102000
     11 C1          -0.7330    -0.0000    -1.2680 c3         1 1QO       0.229100
     12 N2           2.0290    -0.0040    -1.1580 nb         1 1QO      -0.706000
     13 C3           3.3520    -0.0040    -1.2010 ca         1 1QO       0.498200
     14 C7           3.3770    -0.1050     3.6880 ca         1 1QO      -0.028000
     15 C8           4.0960    -0.1010     4.8710 ca         1 1QO      -0.232300
     16 C9           5.4740     0.0080     4.8250 ca         1 1QO       0.414200
     17 C10          5.4690     0.1060     2.5230 ca         1 1QO       0.419200
     18 C14         -4.9330    -0.0220    -0.4870 ca         1 1QO      -0.092000
     19 C15         -4.2470    -1.2150    -0.6170 ca         1 1QO      -0.102000
     20 C16         -2.8880    -1.2080    -0.8640 ca         1 1QO      -0.083000
     21 H3          -0.5000     0.0020     0.8670 hn         1 1QO       0.304800
     22 H5           5.1510     0.0020    -0.0220 ha         1 1QO       0.132000
     23 H10         -2.3720     2.1270    -0.9600 ha         1 1QO       0.108000
     24 H11         -4.7960     2.1140    -0.5080 ha         1 1QO       0.105000
     25 H2          -0.4750     0.8870    -1.8340 h1         1 1QO       0.027700
     26 H1          -0.4670    -0.8820    -1.8390 h1         1 1QO       0.027700
     27 H4           3.8690    -0.0050    -2.1520 h4         1 1QO      -0.019900
     28 H6           2.2970    -0.1890     3.6950 ha         1 1QO       0.128000
     29 H7           3.5850    -0.1810     5.8230 ha         1 1QO       0.114000
     30 H8           6.0400     0.0110     5.7490 h4         1 1QO      -0.021900
     31 H9           6.0270     0.1890     1.5980 h4         1 1QO      -0.013900
     32 H12         -5.9980    -0.0280    -0.2910 ha         1 1QO       0.103000
     33 H13         -4.7740    -2.1560    -0.5190 ha         1 1QO       0.105000
     34 H14         -2.3510    -2.1440    -0.9650 ha         1 1QO       0.108000
@<TRIPOS>BOND
     1     1     2 1   
     2     1    11 1   
     3     1    21 1   
     4     2     3 ar  
     5     2    12 ar  
     6     3     6 ar  
     7     4     6 ar  
     8     4    13 ar  
     9     4    22 1   
    10     5    16 ar  
    11     5    17 ar  
    12     6     7 1   
    13     7    14 ar  
    14     7    17 ar  
    15     8     9 ar  
    16     8    11 1   
    17     8    20 ar  
    18     9    10 ar  
    19     9    23 1   
    20    10    18 ar  
    21    10    24 1   
    22    11    25 1   
    23    11    26 1   
    24    12    13 ar  
    25    13    27 1   
    26    14    15 ar  
    27    14    28 1   
    28    15    16 ar  
    29    15    29 1   
    30    16    30 1   
    31    17    31 1   
    32    18    19 ar  
    33    18    32 1   
    34    19    20 ar  
    35    19    33 1   
    36    20    34 1   
@<TRIPOS>SUBSTRUCTURE
     1 1QO         1 TEMP              0 ****  ****    0 ROOT
