@<TRIPOS>MOLECULE
1QO
   34    36     1     0     0
SMALL
bcc


@<TRIPOS>ATOM
      1 N1           0.2410    -0.0320     0.1980 nu         1 1QO      -0.805900
      2 C2           1.6400    -0.1890     0.3100 ca         1 1QO       0.863900
      3 N3           2.2610     0.1590     1.4980 nb         1 1QO      -0.741000
      4 C4           4.3710    -0.2800     0.3900 ca         1 1QO      -0.410600
      5 N4           4.3910     0.4330     5.1860 nb         1 1QO      -0.670000
      6 C5           3.6160     0.1150     1.5160 cp         1 1QO       0.532800
      7 C6           4.3150     0.4790     2.7580 cp         1 1QO      -0.271800
      8 C11         -0.8350    -1.3470     2.0230 ca         1 1QO      -0.130300
      9 C12         -0.2050    -1.6730     3.2280 ca         1 1QO      -0.113000
     10 C13         -0.4530    -2.9040     3.8350 ca         1 1QO      -0.132000
     11 C1          -0.5920    -0.0130     1.3770 c3         1 1QO       0.236100
     12 N2           2.3140    -0.6130    -0.8380 nb         1 1QO      -0.741000
     13 C3           3.6490    -0.6370    -0.7630 ca         1 1QO       0.463200
     14 C7           5.5310     1.1760     2.7190 ca         1 1QO      -0.072000
     15 C8           6.1670     1.4910     3.9190 ca         1 1QO      -0.252300
     16 C9           5.5610     1.0990     5.1260 ca         1 1QO       0.405200
     17 C10          3.7840     0.1360     4.0230 ca         1 1QO       0.435200
     18 C14         -1.3260    -3.8140     3.2410 ca         1 1QO      -0.122000
     19 C15         -1.9530    -3.4940     2.0360 ca         1 1QO      -0.132000
     20 C16         -1.7080    -2.2630     1.4290 ca         1 1QO      -0.113000
     21 H3          -0.1550    -0.5510    -0.5620 hn         1 1QO       0.420800
     22 H5           5.4640    -0.3240     0.4160 ha         1 1QO       0.154000
     23 H10          0.4910    -0.9570     3.6930 ha         1 1QO       0.135000
     24 H11          0.0430    -3.1550     4.7840 ha         1 1QO       0.133500
     25 H2          -1.5860     0.4100     1.0410 h1         1 1QO       0.074200
     26 H1          -0.1570     0.7030     2.1320 h1         1 1QO       0.074200
     27 H4           4.1710    -0.9710    -1.6800 h4         1 1QO       0.027100
     28 H6           5.9710     1.4760     1.7560 ha         1 1QO       0.144000
     29 H7           7.1190     2.0380     3.9260 ha         1 1QO       0.146000
     30 H8           6.0320     1.3290     6.0980 h4         1 1QO       0.024100
     31 H9           2.8220    -0.4050     4.1050 h4         1 1QO       0.036100
     32 H12         -1.5200    -4.7850     3.7210 ha         1 1QO       0.132000
     33 H13         -2.6410    -4.2110     1.5660 ha         1 1QO       0.133500
     34 H14         -2.2060    -2.0090     0.4810 ha         1 1QO       0.135000
@<TRIPOS>BOND
     1     1     2 1   
     2     1    11 1   
     3     1    21 1   
     4     2     3 ar  
     5     2    12 ar  
     6     3     6 ar  
     7     4     6 ar  
     8     4    13 ar  
     9     4    22 1   
    10     5    16 ar  
    11     5    17 ar  
    12     6     7 1   
    13     7    14 ar  
    14     7    17 ar  
    15     8     9 ar  
    16     8    11 1   
    17     8    20 ar  
    18     9    10 ar  
    19     9    23 1   
    20    10    18 ar  
    21    10    24 1   
    22    11    25 1   
    23    11    26 1   
    24    12    13 ar  
    25    13    27 1   
    26    14    15 ar  
    27    14    28 1   
    28    15    16 ar  
    29    15    29 1   
    30    16    30 1   
    31    17    31 1   
    32    18    19 ar  
    33    18    32 1   
    34    19    20 ar  
    35    19    33 1   
    36    20    34 1   
@<TRIPOS>SUBSTRUCTURE
     1 1QO         1 TEMP              0 ****  ****    0 ROOT
