@<TRIPOS>MOLECULE
1QP
   24    25     1     0     0
SMALL
bcc


@<TRIPOS>ATOM
      1 O1         -0.1810    0.0010    0.1600 o         1 1QP     -0.569000
      2 C1          1.0490   -0.0040    0.0240 c         1 1QP      0.690300
      3 O2          1.8190   -0.0040    1.1610 os        1 1QP     -0.441900
      4 C9          1.1030    0.0030    2.4090 c3        1 1QP      0.141400
      5 C10         2.1510    0.0000    3.4950 c3        1 1QP     -0.100100
      6 C2          1.8130   -0.0110   -1.1940 cc        1 1QP     -0.363800
      7 C8          3.2450   -0.0170   -1.3560 cc        1 1QP      0.444500
      8 N2          3.5930   -0.0220   -2.6680 nd        1 1QP     -0.575100
      9 N1          2.4370   -0.0210   -3.3710 na        1 1QP      0.198000
     10 C3          1.2930   -0.0130   -2.5170 cd        1 1QP      0.020700
     11 C7          2.2670   -0.0250   -4.7460 cc        1 1QP     -0.038300
     12 C6          0.9960   -0.0220   -5.2780 cd        1 1QP     -0.179000
     13 C5         -0.1520   -0.0150   -4.4380 cc        1 1QP     -0.096000
     14 C4         -0.0130   -0.0110   -3.0740 cd        1 1QP     -0.116000
     15 H1          0.4580    0.9190    2.4490 h1        1 1QP      0.050700
     16 H2          0.4490   -0.9070    2.4540 h1        1 1QP      0.050700
     17 H3          1.6430    0.0050    4.4890 hc        1 1QP      0.047033
     18 H4          2.8030    0.9020    3.4130 hc        1 1QP      0.047033
     19 H5          2.7950   -0.9070    3.4170 hc        1 1QP      0.047033
     20 H6          3.9900   -0.0170   -0.5550 h4        1 1QP      0.069800
     21 H7          3.1850   -0.0300   -5.3600 h4        1 1QP      0.182000
     22 H8          0.8700   -0.0250   -6.3700 ha        1 1QP      0.157000
     23 H9         -1.1500   -0.0130   -4.9030 ha        1 1QP      0.149000
     24 H10        -0.8630   -0.0050   -2.3720 ha        1 1QP      0.183000
@<TRIPOS>BOND
     1    1    2 2   
     2    2    3 1   
     3    2    6 1   
     4    3    4 1   
     5    4    5 1   
     6    4   15 1   
     7    4   16 1   
     8    5   17 1   
     9    5   18 1   
    10    5   19 1   
    11    6    7 1   
    12    6   10 2   
    13    7    8 2   
    14    7   20 1   
    15    8    9 1   
    16    9   10 1   
    17    9   11 1   
    18   10   14 1   
    19   11   12 2   
    20   11   21 1   
    21   12   13 1   
    22   12   22 1   
    23   13   14 2   
    24   13   23 1   
    25   14   24 1   
@<TRIPOS>SUBSTRUCTURE
     1 1QP         1 TEMP              0 ****  ****    0 ROOT
