@<TRIPOS>MOLECULE
molecule
   24    25     1     0     0
SMALL
bcc


@<TRIPOS>ATOM
      1 O1           0.0000     0.0000     0.0000 o          1 1QP      -0.577000
      2 C1           1.2160     0.0000     0.0000 c          1 1QP       0.692300
      3 O2           1.8910     0.0000     1.1680 os         1 1QP      -0.433900
      4 C9           1.1000    -0.0010     2.3860 c3         1 1QP       0.150400
      5 C10          2.0310    -0.0020     3.5990 c3         1 1QP      -0.097100
      6 C2           1.9480    -0.0050    -1.2670 cc         1 1QP      -0.406800
      7 C8           3.3460    -0.0110    -1.4290 cd         1 1QP       0.460500
      8 N2           3.6210    -0.0200    -2.7060 nc         1 1QP      -0.579100
      9 N1           2.4310    -0.0200    -3.4440 na         1 1QP       0.208000
     10 C3           1.3890    -0.0100    -2.5610 cd         1 1QP       0.037700
     11 C7           2.1900    -0.0260    -4.7840 cc         1 1QP      -0.025300
     12 C6           0.9230    -0.0240    -5.2580 cd         1 1QP      -0.184000
     13 C5          -0.1630    -0.0140    -4.3720 cc         1 1QP      -0.096000
     14 C4           0.0690    -0.0140    -3.0280 cd         1 1QP      -0.119000
     15 H1           0.4750     0.8830     2.4110 h1         1 1QP       0.047700
     16 H2           0.4760    -0.8860     2.4100 h1         1 1QP       0.047700
     17 H3           1.4410    -0.0020     4.5080 hc         1 1QP       0.046367
     18 H4           2.6560    -0.8860     3.5750 hc         1 1QP       0.046367
     19 H5           2.6560     0.8830     3.5750 hc         1 1QP       0.046367
     20 H6           4.0740    -0.0080    -0.6260 h4         1 1QP       0.074800
     21 H7           3.0210    -0.0340    -5.4780 h4         1 1QP       0.175000
     22 H8           0.7480    -0.0240    -6.3270 ha         1 1QP       0.155000
     23 H9          -1.1780    -0.0120    -4.7520 ha         1 1QP       0.147000
     24 H10         -0.7590    -0.0060    -2.3290 ha         1 1QP       0.181000
@<TRIPOS>BOND
     1     8     7 2   
     2     8     9 1   
     3     7     6 1   
     4    11     9 1   
     5    11    12 2   
     6     9    10 1   
     7    12    13 1   
     8     6    10 2   
     9     6     2 1   
    10    10    14 1   
    11     1     2 2   
    12    13    14 2   
    13     2     3 1   
    14     3     4 1   
    15     4     5 1   
    16     4    15 1   
    17     4    16 1   
    18     5    17 1   
    19     5    18 1   
    20     5    19 1   
    21     7    20 1   
    22    11    21 1   
    23    12    22 1   
    24    13    23 1   
    25    14    24 1   
@<TRIPOS>SUBSTRUCTURE
     1 1QP         1 TEMP              0 ****  ****    0 ROOT
