@<TRIPOS>MOLECULE
1QP
   24    25     1     0     0
SMALL
bcc


@<TRIPOS>ATOM
      1 O1          -0.0540     0.1820     0.0820 o          1 1QP      -0.557000
      2 C1           1.1790     0.1770    -0.0230 c          1 1QP       0.690300
      3 O2           1.9160     0.2350     1.1360 os         1 1QP      -0.452900
      4 C9           1.1630     0.2960     2.3610 c3         1 1QP       0.140400
      5 C10          2.1770     0.3510     3.4770 c3         1 1QP      -0.101100
      6 C2           1.9660     0.1180    -1.2250 cc         1 1QP      -0.362800
      7 C8           1.4350     0.0510    -2.5660 cc         1 1QP       0.443500
      8 N2           2.4290     0.0050    -3.4870 nd         1 1QP      -0.573100
      9 N1           3.5930     0.0410    -2.7980 na         1 1QP       0.197000
     10 C3           3.3760     0.1110    -1.3870 cd         1 1QP       0.024700
     11 C7           4.8850     0.0170    -3.2970 cc         1 1QP      -0.036300
     12 C6           5.9550     0.0610    -2.4290 cd         1 1QP      -0.180000
     13 C5           5.7550     0.1310    -1.0230 cc         1 1QP      -0.097000
     14 C4           4.4860     0.1560    -0.5020 cd         1 1QP      -0.116000
     15 H1           0.5120     1.2090     2.3390 h1         1 1QP       0.052700
     16 H2           0.5120    -0.6150     2.4290 h1         1 1QP       0.052700
     17 H3           2.8280     1.2520     3.3730 hc         1 1QP       0.045700
     18 H4           2.8270    -0.5560     3.4630 hc         1 1QP       0.045700
     19 H5           1.6390     0.4000     4.4540 hc         1 1QP       0.045700
     20 H6           0.3780     0.0360    -2.8470 h4         1 1QP       0.071800
     21 H7           4.9930    -0.0380    -4.3950 h4         1 1QP       0.182000
     22 H8           6.9770     0.0420    -2.8330 ha         1 1QP       0.157000
     23 H9           6.6360     0.1650    -0.3630 ha         1 1QP       0.148000
     24 H10          4.2740     0.2100     0.5770 ha         1 1QP       0.178000
@<TRIPOS>BOND
     1     1     2 2   
     2     2     3 1   
     3     2     6 1   
     4     3     4 1   
     5     4     5 1   
     6     4    15 1   
     7     4    16 1   
     8     5    17 1   
     9     5    18 1   
    10     5    19 1   
    11     6     7 1   
    12     6    10 2   
    13     7     8 2   
    14     7    20 1   
    15     8     9 1   
    16     9    10 1   
    17     9    11 1   
    18    10    14 1   
    19    11    12 2   
    20    11    21 1   
    21    12    13 1   
    22    12    22 1   
    23    13    14 2   
    24    13    23 1   
    25    14    24 1   
@<TRIPOS>SUBSTRUCTURE
     1 1QP         1 TEMP              0 ****  ****    0 ROOT
