@<TRIPOS>MOLECULE
1QQ
   18    17     1     0     0
SMALL
bcc


@<TRIPOS>ATOM
      1 C42        -0.1320   -0.3960   -0.4440 c         1 1QQ      0.837600
      2 C44         1.1810   -0.0670   -1.1470 c         1 1QQ      0.466900
      3 C46         3.0530    0.3840    2.3300 cx        1 1QQ     -0.095700
      4 C48         2.5720   -1.0200    2.2360 c3        1 1QQ     -0.096100
      5 C47         3.9210    0.9490    1.2380 cx        1 1QQ     -0.146900
      6 C49         4.5080    0.6750    2.5920 cx        1 1QQ     -0.146900
      7 O45         1.4820   -0.3720   -2.3040 o         1 1QQ     -0.595100
      8 O43        -0.1200   -1.3830    0.3460 o         1 1QQ     -0.821800
      9 H46         1.9180    0.4900   -0.5120 h4        1 1QQ     -0.059800
     10 H481        2.3020    1.0600    2.7880 hc        1 1QQ      0.075700
     11 H482        2.2920   -1.4010    3.2480 hc        1 1QQ      0.053700
     12 H483        3.3600   -1.6900    1.8140 hc        1 1QQ      0.053700
     13 H471        1.6640   -1.0770    1.5710 hc        1 1QQ      0.053700
     14 H472        3.7640    1.9940    0.9190 hc        1 1QQ      0.060700
     15 H491        4.1960    0.2980    0.3900 hc        1 1QQ      0.060700
     16 H492        5.2080   -0.1700    2.7090 hc        1 1QQ      0.060700
     17 H493        4.7770    1.5250    3.2430 hc        1 1QQ      0.060700
     18 OXT        -1.1150    0.3640   -0.6460 o         1 1QQ     -0.821800
@<TRIPOS>BOND
     1    1    2 1   
     2    1    8 1   
     3    1   18 1   
     4    2    7 2   
     5    2    9 1   
     6    3    4 1   
     7    3    5 1   
     8    3    6 1   
     9    3   10 1   
    10    4   11 1   
    11    4   12 1   
    12    4   13 1   
    13    5    6 1   
    14    5   14 1   
    15    5   15 1   
    16    6   16 1   
    17    6   17 1   
@<TRIPOS>SUBSTRUCTURE
     1 1QQ         1 TEMP              0 ****  ****    0 ROOT
