@<TRIPOS>MOLECULE
molecule
   18    17     1     0     0
SMALL
bcc


@<TRIPOS>ATOM
      1 C42          0.0000     0.0000     0.0000 c          1 1QQ       0.805600
      2 C44          1.4900     0.0000     0.0000 c          1 1QQ       0.478100
      3 C46          2.2440     0.0000     1.3060 c3         1 1QQ      -0.180700
      4 C48          2.4980    -1.4430     1.7470 c3         1 1QQ      -0.069100
      5 C47          3.5800     0.7210     1.1240 c3         1 1QQ      -0.073400
      6 C49          4.2890     0.8300     2.4760 c3         1 1QQ      -0.093100
      7 O45          2.0950     0.0010    -1.0460 o          1 1QQ      -0.548100
      8 O43         -0.6070     0.0000     1.0500 o          1 1QQ      -0.815800
      9 H46          1.6580     0.5100     2.0600 hc         1 1QQ       0.078700
     10 H481         3.3800    -1.8230     1.2460 hc         1 1QQ       0.028033
     11 H482         1.6430    -2.0550     1.4880 hc         1 1QQ       0.028033
     12 H483         2.6510    -1.4710     2.8190 hc         1 1QQ       0.028033
     13 H471         3.4040     1.7140     0.7270 hc         1 1QQ       0.042700
     14 H472         4.2020     0.1620     0.4340 hc         1 1QQ       0.042700
     15 H491         5.0520     1.5970     2.4230 hc         1 1QQ       0.021700
     16 H492         3.5680     1.0900     3.2410 hc         1 1QQ       0.021700
     17 H493         4.7490    -0.1200     2.7200 hc         1 1QQ       0.021700
     18 OXT         -0.6730     0.0060    -1.1660 o          1 1QQ      -0.815800
@<TRIPOS>BOND
     1     1     2 1
     2     1     8 1
     3     2     3 1
     4     2     7 2
     5     3     4 1
     6     3     5 1
     7     3     9 1
     8     4    10 1
     9     4    11 1
    10     4    12 1
    11     5     6 1
    12     5    13 1
    13     5    14 1
    14     6    15 1
    15     6    16 1
    16     6    17 1
    17     1    18 1
@<TRIPOS>SUBSTRUCTURE
     1 1QQ         1 TEMP              0 ****  ****    0 ROOT
