@<TRIPOS>MOLECULE
1QQ
   18    17     1     0     0
SMALL
bcc


@<TRIPOS>ATOM
      1 C42          0.0700     0.0800     0.2820 c          1 1QQ       0.855600
      2 C44          1.4860    -0.4440    -0.0050 c          1 1QQ       0.471100
      3 C46          2.4830    -0.1870     1.1160 c3         1 1QQ      -0.177700
      4 C48          3.7200    -1.0430     0.9770 c3         1 1QQ      -0.078100
      5 C47          2.8210     1.2970     1.1480 c3         1 1QQ      -0.081400
      6 C49          3.3650     1.7310     2.4840 c3         1 1QQ      -0.084100
      7 O45          1.8170    -1.0350    -1.0380 o          1 1QQ      -0.589100
      8 O43         -0.7260    -0.7060     0.8610 o          1 1QQ      -0.816800
      9 H46          1.9520    -0.4590     2.0730 hc         1 1QQ       0.067700
     10 H481         3.4420    -2.1240     1.0030 hc         1 1QQ       0.023700
     11 H482         4.2230    -0.8390     0.0000 hc         1 1QQ       0.023700
     12 H483         4.4410    -0.8360     1.8040 hc         1 1QQ       0.023700
     13 H471         1.8850     1.8800     0.9150 hc         1 1QQ       0.061200
     14 H472         3.5690     1.5240     0.3440 hc         1 1QQ       0.061200
     15 H491         2.6180     1.5430     3.2920 hc         1 1QQ       0.018700
     16 H492         4.3010     1.1760     2.7380 hc         1 1QQ       0.018700
     17 H493         3.5990     2.8240     2.4690 hc         1 1QQ       0.018700
     18 OXT         -0.1800     1.2720    -0.0450 o          1 1QQ      -0.816800
@<TRIPOS>BOND
     1     1     2 1   
     2     1     8 1   
     3     1    18 1   
     4     2     3 1   
     5     2     7 2   
     6     3     4 1   
     7     3     5 1   
     8     3     9 1   
     9     4    10 1   
    10     4    11 1   
    11     4    12 1   
    12     5     6 1   
    13     5    13 1   
    14     5    14 1   
    15     6    15 1   
    16     6    16 1   
    17     6    17 1   
@<TRIPOS>SUBSTRUCTURE
     1 1QQ         1 TEMP              0 ****  ****    0 ROOT
