@<TRIPOS>MOLECULE
1QR
   51    54     1     0     0
SMALL
bcc


@<TRIPOS>ATOM
      1 C4           0.5740    -0.0720     0.4310 ca         1 1QR      -0.020000
      2 C5           1.9640    -0.0640     0.3110 ca         1 1QR      -0.126500
      3 C6           2.7530    -0.4250     1.4070 ca         1 1QR      -0.135300
      4 C7           4.2410    -0.4300     1.2850 c3         1 1QR       0.165100
      5 C13          4.9370     5.5590     1.5850 ca         1 1QR      -0.276100
      6 C17          5.9370     5.8090     3.8220 ca         1 1QR      -0.262300
      7 C26         -3.8150    -3.5540     2.1590 c3         1 1QR      -0.090400
      8 C28         -3.9940    -2.7310    -0.1860 c3         1 1QR      -0.090400
      9 C1           2.1520    -0.7990     2.6140 ca         1 1QR      -0.126500
     10 C2           0.7630    -0.8010     2.7200 ca         1 1QR      -0.020000
     11 C3          -0.0360    -0.4330     1.6330 ca         1 1QR      -0.293500
     12 N8           4.8420     0.8470     1.7960 ny         1 1QR      -0.675800
     13 C9           4.8710     1.9780     0.7770 c          1 1QR       0.590300
     14 O10          4.6990     1.6700    -0.3960 o          1 1QR      -0.435100
     15 C11          5.0740     3.2970     1.3210 cc         1 1QR      -0.282300
     16 C12          4.6570     4.4780     0.6850 cd         1 1QR       0.072800
     17 C14          4.7500     6.9580     1.5470 ca         1 1QR       0.500200
     18 N15          5.1270     7.7470     2.5580 nb         1 1QR      -0.659000
     19 C16          5.7010     7.1820     3.6520 ca         1 1QR       0.469200
     20 C18          5.5400     4.9790     2.7670 ca         1 1QR       0.018800
     21 N19          5.5620     3.5730     2.6420 na         1 1QR      -0.165400
     22 S21         -1.7590    -0.3460     1.8040 sy         1 1QR       1.495200
     23 O22         -2.1800     0.6550     0.9070 o          1 1QR      -0.638300
     24 O23         -1.9960    -0.1440     3.1780 o          1 1QR      -0.638300
     25 N24         -2.2480    -1.8030     1.3310 n3         1 1QR      -0.824500
     26 C25         -2.4360    -2.9000     2.2530 c3         1 1QR       0.220300
     27 C27         -4.1460    -3.9250     0.7300 c3         1 1QR      -0.079400
     28 C29         -2.6100    -2.0960    -0.0380 c3         1 1QR       0.220300
     29 H1          -0.0520     0.2330    -0.4280 ha         1 1QR       0.173500
     30 H2           2.4360     0.2280    -0.6420 ha         1 1QR       0.147500
     31 H3           4.6810    -1.2720     1.8960 hx         1 1QR       0.116700
     32 H4           4.5540    -0.5600     0.2060 hx         1 1QR       0.116700
     33 H7          -3.8110    -4.4700     2.8060 hc         1 1QR       0.059200
     34 H8          -4.1200    -3.0440    -1.2550 hc         1 1QR       0.059200
     35 H9          -4.7870    -1.9730     0.0430 hc         1 1QR       0.059200
     36 H10          2.7660    -1.1030     3.4750 ha         1 1QR       0.147500
     37 H11          0.2840    -1.0750     3.6790 ha         1 1QR       0.173500
     38 H12          5.8050     0.6670     2.0960 hn         1 1QR       0.458800
     39 H13          4.1860     4.5510    -0.2980 ha         1 1QR       0.194000
     40 H14          4.2800     7.4530     0.6760 h4         1 1QR       0.051100
     41 H15          5.9900     7.8990     4.4470 h4         1 1QR       0.052100
     42 H16          6.3800     3.0970     2.9540 hn         1 1QR       0.274700
     43 H17         -1.6530    -3.6850     2.0410 h1         1 1QR       0.053200
     44 H18         -2.2830    -2.5210     3.3060 h1         1 1QR       0.053200
     45 H19         -5.1960    -4.3130     0.6740 hc         1 1QR       0.051200
     46 H20         -3.4650    -4.7500     0.3890 hc         1 1QR       0.051200
     47 H21         -1.8440    -2.8050    -0.4680 h1         1 1QR       0.053200
     48 H22         -2.5820    -1.1380    -0.6350 h1         1 1QR       0.053200
     49 H5           6.4020     5.4210     4.7370 ha         1 1QR       0.168000
     50 H82          4.2970     1.1650     2.6090 hn         1 1QR       0.458800
     51 H6          -4.5960    -2.8570     2.5610 hc         1 1QR       0.059200
@<TRIPOS>BOND
     1     1     2 ar  
     2     1    11 ar  
     3     1    29 1   
     4     2     3 ar  
     5     2    30 1   
     6     3     4 1   
     7     3     9 ar  
     8     4    12 1   
     9     4    31 1   
    10     4    32 1   
    11     5    16 1   
    12     5    17 ar  
    13     5    20 ar  
    14     6    19 ar  
    15     6    20 ar  
    16     6    49 1   
    17     7    26 1   
    18     7    27 1   
    19     7    33 1   
    20     7    51 1   
    21     8    27 1   
    22     8    28 1   
    23     8    34 1   
    24     8    35 1   
    25     9    10 ar  
    26     9    36 1   
    27    10    11 ar  
    28    10    37 1   
    29    11    22 1   
    30    12    13 1   
    31    12    38 1   
    32    12    50 1   
    33    13    14 2   
    34    13    15 1   
    35    15    16 2   
    36    15    21 1   
    37    16    39 1   
    38    17    18 ar  
    39    17    40 1   
    40    18    19 ar  
    41    19    41 1   
    42    20    21 1   
    43    21    42 1   
    44    22    23 2   
    45    22    24 2   
    46    22    25 1   
    47    25    26 1   
    48    25    28 1   
    49    26    43 1   
    50    26    44 1   
    51    27    45 1   
    52    27    46 1   
    53    28    47 1   
    54    28    48 1   
@<TRIPOS>SUBSTRUCTURE
     1 1QR         1 TEMP              0 ****  ****    0 ROOT
