@<TRIPOS>MOLECULE
1QR
   50    53     1     0     0
SMALL
bcc


@<TRIPOS>ATOM
      1 C4           0.0000     0.0000     0.0000 ca         1 1QR       0.004000
      2 C5           1.3820     0.0000     0.0000 ca         1 1QR      -0.118000
      3 C6           2.0730     0.0000     1.1980 ca         1 1QR      -0.079300
      4 C7           3.5800     0.0000     1.1990 c3         1 1QR       0.109300
      5 C13          7.2320     4.8020     1.2020 ca         1 1QR      -0.253100
      6 C17          5.6610     6.6270     1.2070 ca         1 1QR      -0.230300
      7 C26         -2.3430    -3.5930     2.4440 c3         1 1QR      -0.047400
      8 C28         -2.3420    -3.5920    -0.0560 c3         1 1QR      -0.047400
      9 C1           1.3810    -0.0010     2.3950 ca         1 1QR      -0.118000
     10 C2          -0.0020    -0.0010     2.3940 ca         1 1QR       0.004000
     11 C3          -0.6920    -0.0010     1.1960 ca         1 1QR      -0.154500
     12 N8           4.0680     1.3810     1.2000 ns         1 1QR      -0.205900
     13 C9           5.3930     1.6270     1.2010 c          1 1QR       0.626300
     14 O10          6.1840     0.7030     1.2000 o          1 1QR      -0.630100
     15 C11          5.8830     3.0140     1.2010 cc         1 1QR      -0.348300
     16 C12          7.1890     3.3880     1.2020 cd         1 1QR      -0.036200
     17 C14          8.2600     5.7490     1.2070 ca         1 1QR       0.482200
     18 N15          7.9740     7.0330     1.2130 nb         1 1QR      -0.613000
     19 C16          6.7280     7.4800     1.2130 ca         1 1QR       0.426200
     20 C18          5.8930     5.2520     1.2020 ca         1 1QR      -0.200200
     21 N19          5.0870     4.1450     1.1960 na         1 1QR       0.378600
     22 S21         -2.4540    -0.0020     1.1950 sy         1 1QR       1.052200
     23 O22         -2.8560     0.5420     2.4450 o          1 1QR      -0.586800
     24 O23         -2.8550     0.5430    -0.0550 o          1 1QR      -0.586800
     25 N24         -2.9430    -1.5840     1.1950 n3         1 1QR      -0.528500
     26 C25         -3.1650    -2.3000     2.4580 c3         1 1QR       0.237800
     27 C27         -2.6940    -4.4020     1.1930 c3         1 1QR      -0.020400
     28 C29         -3.1640    -2.2990    -0.0700 c3         1 1QR       0.237800
     29 H1          -0.5410    -0.0000    -0.9380 ha         1 1QR       0.125000
     30 H2           1.9240     0.0010    -0.9380 ha         1 1QR       0.115500
     31 H3           3.9410    -0.5110     2.0830 h1         1 1QR       0.033700
     32 H4           3.9420    -0.5100     0.3140 h1         1 1QR       0.033700
     33 H6          -2.5740    -4.1760     3.3270 hc         1 1QR       0.018200
     34 H7          -1.2880    -3.3490     2.4310 hc         1 1QR       0.018200
     35 H8          -1.2870    -3.3480    -0.0410 hc         1 1QR       0.018200
     36 H9          -2.5720    -4.1740    -0.9400 hc         1 1QR       0.018200
     37 H10          1.9230    -0.0010     3.3330 ha         1 1QR       0.115500
     38 H11         -0.5440    -0.0020     3.3320 ha         1 1QR       0.125000
     39 H12          3.4180     2.1420     1.2370 hn         1 1QR       0.169500
     40 H13          8.0420     2.7260     1.1160 ha         1 1QR       0.144000
     41 H14          9.2940     5.4250     1.2070 h4         1 1QR      -0.020900
     42 H15          6.5500     8.5480     1.2180 h4         1 1QR      -0.021900
     43 H16          4.0870     4.1540     1.1890 hn         1 1QR       0.114700
     44 H17         -4.2170    -2.5400     2.5580 h1         1 1QR       0.024700
     45 H18         -2.8490    -1.6780     3.2870 h1         1 1QR       0.024700
     46 H19         -3.7560    -4.6200     1.1930 hc         1 1QR       0.015700
     47 H20         -2.1300    -5.3270     1.1930 hc         1 1QR       0.015700
     48 H21         -2.8470    -1.6770    -0.8980 h1         1 1QR       0.024700
     49 H22         -4.2160    -2.5390    -0.1710 h1         1 1QR       0.024700
     50 H5           4.6480     7.0130     1.2070 ha         1 1QR       0.110000
@<TRIPOS>BOND
     1     1     2 ar  
     2     1    11 ar  
     3     1    29 1   
     4     2     3 ar  
     5     2    30 1   
     6     3     4 1   
     7     3     9 ar  
     8     4    12 1   
     9     4    31 1   
    10     4    32 1   
    11     5    16 1   
    12     5    17 ar  
    13     5    20 ar  
    14     6    19 ar  
    15     6    20 ar  
    16     6    50 1   
    17     7    26 1   
    18     7    27 1   
    19     7    33 1   
    20     7    34 1   
    21     8    27 1   
    22     8    28 1   
    23     8    35 1   
    24     8    36 1   
    25     9    10 ar  
    26     9    37 1   
    27    10    11 ar  
    28    10    38 1   
    29    11    22 1   
    30    12    13 1   
    31    12    39 1   
    32    13    14 2   
    33    13    15 1   
    34    15    16 2   
    35    15    21 1   
    36    16    40 1   
    37    17    18 ar  
    38    17    41 1   
    39    18    19 ar  
    40    19    42 1   
    41    20    21 1   
    42    21    43 1   
    43    22    23 2   
    44    22    24 2   
    45    22    25 1   
    46    25    26 1   
    47    25    28 1   
    48    26    44 1   
    49    26    45 1   
    50    27    46 1   
    51    27    47 1   
    52    28    48 1   
    53    28    49 1   
@<TRIPOS>SUBSTRUCTURE
     1 1QR         1 TEMP              0 ****  ****    0 ROOT
