@<TRIPOS>MOLECULE
1QS
   46    49     1     0     0
SMALL
bcc


@<TRIPOS>ATOM
      1 C4           0.8720     0.9290    -0.2860 ca         1 1QS      -0.014500
      2 C5           2.2310     1.0310    -0.0010 ca         1 1QS      -0.129000
      3 C6           2.7440     0.4350     1.1570 ca         1 1QS      -0.126300
      4 C7           4.1980     0.5600     1.4710 c3         1 1QS       0.163100
      5 C13          4.1700    -5.0370    -0.4320 cc         1 1QS      -0.061000
      6 C17          5.4200    -3.7160    -3.5770 cc         1 1QS      -0.214100
      7 C24         -2.7480     1.2980     2.2640 ca         1 1QS      -0.078500
      8 C26         -3.4300     3.6430     2.2280 ca         1 1QS      -0.138000
      9 C28         -2.4080     2.6110     0.2650 ca         1 1QS      -0.078500
     10 C1           1.8940    -0.2510     2.0270 ca         1 1QS      -0.129000
     11 C2           0.5330    -0.3440     1.7310 ca         1 1QS      -0.014500
     12 C3           0.0100     0.2380     0.5740 ca         1 1QS      -0.302500
     13 N8           5.0410    -0.2960     0.5700 ny         1 1QS      -0.685800
     14 C9           5.1210    -1.7500     1.0320 c          1 1QS       0.588700
     15 O10          5.3100    -1.9020     2.2300 o          1 1QS      -0.419100
     16 C11          4.9370    -2.7660     0.0090 cd         1 1QS      -0.251600
     17 C12          4.3690    -4.0130     0.4470 cd         1 1QS      -0.092000
     18 C14          4.5430    -4.8750    -1.8080 cc         1 1QS      -0.004300
     19 N15          4.4690    -5.7060    -2.8700 nd         1 1QS      -0.233600
     20 C16          5.0020    -5.0070    -3.9510 cd         1 1QS       0.067600
     21 N18          5.1350    -3.6010    -2.2090 na         1 1QS      -0.008300
     22 C19          5.3190    -2.5950    -1.3190 cc         1 1QS       0.021700
     23 S20         -1.6480     0.0540     0.1750 sy         1 1QS       1.432600
     24 O21         -1.7570     0.1910    -1.2110 o          1 1QS      -0.633300
     25 O22         -2.0950    -1.1190     0.7870 o          1 1QS      -0.633300
     26 C23         -2.2880     1.3980     0.9490 ca         1 1QS      -0.338500
     27 C25         -3.3140     2.4160     2.9030 ca         1 1QS       0.141900
     28 C27         -2.9730     3.7300     0.9020 ca         1 1QS       0.141900
     29 F29         -3.0780     4.9000     0.2320 f          1 1QS      -0.116900
     30 F30         -3.7520     2.3090     4.1780 f          1 1QS      -0.116900
     31 H1           0.4660     1.3840    -1.2100 ha         1 1QS       0.175500
     32 H2           2.8880     1.5970    -0.6790 ha         1 1QS       0.146500
     33 H3           4.5320     1.6300     1.3260 hx         1 1QS       0.119700
     34 H4           4.4130     0.2570     2.5390 hx         1 1QS       0.119700
     35 H7          -2.6940     0.3360     2.8030 ha         1 1QS       0.174500
     36 H8          -3.8780     4.5170     2.7260 ha         1 1QS       0.182000
     37 H9          -2.0820     2.6930    -0.7870 ha         1 1QS       0.174500
     38 H10          2.2860    -0.7130     2.9480 ha         1 1QS       0.146500
     39 H11         -0.1370    -0.9030     2.4110 ha         1 1QS       0.175500
     40 H12          4.6490    -0.2630    -0.3770 hn         1 1QS       0.453800
     41 H13          4.1060    -4.1210     1.5120 ha         1 1QS       0.173000
     42 H14          5.0580    -5.4660    -4.9440 h4         1 1QS       0.212000
     43 H15          5.8050    -1.6820    -1.7100 h4         1 1QS       0.155000
     44 H5           3.7340    -6.0040    -0.1280 ha         1 1QS       0.198000
     45 H82          5.9930     0.0860     0.5550 hn         1 1QS       0.453800
     46 H6           5.8780    -2.9140    -4.1530 h4         1 1QS       0.200000
@<TRIPOS>BOND
     1     1     2 ar  
     2     1    12 ar  
     3     1    31 1   
     4     2     3 ar  
     5     2    32 1   
     6     3     4 1   
     7     3    10 ar  
     8     4    13 1   
     9     4    33 1   
    10     4    34 1   
    11     5    17 2   
    12     5    18 1   
    13     5    44 1   
    14     6    20 2   
    15     6    21 1   
    16     6    46 1   
    17     7    26 ar  
    18     7    27 ar  
    19     7    35 1   
    20     8    27 ar  
    21     8    28 ar  
    22     8    36 1   
    23     9    26 ar  
    24     9    28 ar  
    25     9    37 1   
    26    10    11 ar  
    27    10    38 1   
    28    11    12 ar  
    29    11    39 1   
    30    12    23 1   
    31    13    14 1   
    32    13    40 1   
    33    13    45 1   
    34    14    15 2   
    35    14    16 1   
    36    16    17 1   
    37    16    22 2   
    38    17    41 1   
    39    18    19 2   
    40    18    21 1   
    41    19    20 1   
    42    20    42 1   
    43    21    22 1   
    44    22    43 1   
    45    23    24 2   
    46    23    25 2   
    47    23    26 1   
    48    27    30 1   
    49    28    29 1   
@<TRIPOS>SUBSTRUCTURE
     1 1QS         1 TEMP              0 ****  ****    0 ROOT
