@<TRIPOS>MOLECULE
1QS
   45    48     1     0     0
SMALL
bcc


@<TRIPOS>ATOM
      1 C4           0.0000     0.0000     0.0000 ca         1 1QS       0.003000
      2 C5           1.3820     0.0000     0.0000 ca         1 1QS      -0.114500
      3 C6           2.0740     0.0000     1.1970 ca         1 1QS      -0.075300
      4 C7           3.5810    -0.0010     1.1970 c3         1 1QS       0.105300
      5 C13          5.4320     5.3690     1.1930 cc         1 1QS      -0.021000
      6 C17          8.9610     5.0650     1.1950 cc         1 1QS      -0.437100
      7 C24         -3.1780     2.3560     0.0100 ca         1 1QS      -0.046000
      8 C26         -3.7830     4.3390     1.2160 ca         1 1QS      -0.120000
      9 C28         -3.1780     2.3460     2.4040 ca         1 1QS      -0.046000
     10 C1           1.3830     0.0020     2.3940 ca         1 1QS      -0.114500
     11 C2           0.0000     0.0020     2.3950 ca         1 1QS       0.003000
     12 C3          -0.6910     0.0080     1.1980 ca         1 1QS      -0.142500
     13 N8           4.0700     1.3800     1.1960 ns         1 1QS      -0.193900
     14 C9           5.3960     1.6250     1.1950 c          1 1QS       0.602700
     15 O10          6.1850     0.7000     1.1960 o          1 1QS      -0.648100
     16 C11          5.8890     3.0160     1.1940 cd         1 1QS      -0.158600
     17 C12          4.9680     4.0940     1.1940 cd         1 1QS      -0.130000
     18 C14          6.8250     5.6020     1.1920 cc         1 1QS      -0.242300
     19 N15          7.5370     6.7180     1.1860 nd         1 1QS      -0.245600
     20 C16          8.8380     6.4090     1.1880 cd         1 1QS       0.066600
     21 N18          7.6950     4.5420     1.1970 na         1 1QS       0.609700
     22 C19          7.2310     3.2650     1.2050 cc         1 1QS      -0.196300
     23 S20         -2.4530     0.0080     1.1980 sy         1 1QS       0.965600
     24 O21         -2.8550    -0.5310    -0.0540 o          1 1QS      -0.581800
     25 O22         -2.8550    -0.5410     2.4450 o          1 1QS      -0.581800
     26 C23         -2.9740     1.6920     1.2040 ca         1 1QS      -0.097500
     27 C25         -3.5830     3.6810     0.0150 ca         1 1QS       0.106900
     28 C27         -3.5780     3.6720     2.4110 ca         1 1QS       0.106900
     29 F29         -3.7670     4.3160     3.5840 f          1 1QS      -0.117900
     30 F30         -3.7820     4.3300    -1.1530 f          1 1QS      -0.117900
     31 H1          -0.5420     0.0020    -0.9380 ha         1 1QS       0.125500
     32 H2           1.9230    -0.0060    -0.9380 ha         1 1QS       0.116500
     33 H3           3.9410    -0.5130     0.3130 h1         1 1QS       0.034700
     34 H4           3.9410    -0.5120     2.0820 h1         1 1QS       0.034700
     35 H6           9.8880     4.5040     1.1980 h4         1 1QS       0.163000
     36 H7          -3.0200     1.8410    -0.9290 ha         1 1QS       0.142000
     37 H8          -4.0970     5.3760     1.2200 ha         1 1QS       0.136000
     38 H9          -3.0180     1.8240     3.3400 ha         1 1QS       0.142000
     39 H10          1.9250    -0.0000     3.3320 ha         1 1QS       0.116500
     40 H11         -0.5410     0.0060     3.3330 ha         1 1QS       0.125500
     41 H12          3.4210     2.1410     1.2320 hn         1 1QS       0.183500
     42 H13          3.9100     3.9020     1.0660 ha         1 1QS       0.113000
     43 H14          9.6560     7.1190     1.1840 h4         1 1QS       0.141000
     44 H15          7.9310     2.4380     1.2190 h4         1 1QS       0.162000
     45 H5           4.7390     6.2020     1.1920 ha         1 1QS       0.125000
@<TRIPOS>BOND
     1     1     2 ar  
     2     1    12 ar  
     3     1    31 1   
     4     2     3 ar  
     5     2    32 1   
     6     3     4 1   
     7     3    10 ar  
     8     4    13 1   
     9     4    33 1   
    10     4    34 1   
    11     5    17 2   
    12     5    18 1   
    13     5    45 1   
    14     6    20 2   
    15     6    21 1   
    16     6    35 1   
    17     7    26 ar  
    18     7    27 ar  
    19     7    36 1   
    20     8    27 ar  
    21     8    28 ar  
    22     8    37 1   
    23     9    26 ar  
    24     9    28 ar  
    25     9    38 1   
    26    10    11 ar  
    27    10    39 1   
    28    11    12 ar  
    29    11    40 1   
    30    12    23 1   
    31    13    14 1   
    32    13    41 1   
    33    14    15 2   
    34    14    16 1   
    35    16    17 1   
    36    16    22 2   
    37    17    42 1   
    38    18    19 2   
    39    18    21 1   
    40    19    20 1   
    41    20    43 1   
    42    21    22 1   
    43    22    44 1   
    44    23    24 2   
    45    23    25 2   
    46    23    26 1   
    47    27    30 1   
    48    28    29 1   
@<TRIPOS>SUBSTRUCTURE
     1 1QS         1 TEMP              0 ****  ****    0 ROOT
