@<TRIPOS>MOLECULE
1QT
   83    87     1     0     0
SMALL
bcc


@<TRIPOS>ATOM
      1 C2          0.1720   -0.2140    0.0770 cy        1 1QT     -0.088400
      2 C3          1.6110   -0.7160    0.3120 cy        1 1QT     -0.085400
      3 C4          1.6830    0.0570    1.6440 cy        1 1QT     -0.088400
      4 C1          0.2420    0.5980    1.4030 cy        1 1QT      0.113800
      5 C24         0.1340    2.1030    1.2870 c3        1 1QT     -0.121400
      6 O3         -0.6050    0.0980    2.4360 os        1 1QT     -0.281900
      7 C26        -1.9100    0.5340    2.3800 ca        1 1QT      0.176100
      8 C27        -2.8500   -0.2510    3.0820 ca        1 1QT     -0.129000
      9 C28        -4.1840    0.1170    3.0660 ca        1 1QT     -0.050000
     10 C29        -4.6150    1.2480    2.3400 ca        1 1QT     -0.069300
     11 C31        -6.0640    1.5890    2.3010 c3        1 1QT     -0.047100
     12 C32        -6.5720    2.0730    3.6380 c3        1 1QT     -0.095100
     13 C30        -3.6800    2.0140    1.6570 ca        1 1QT     -0.121000
     14 C25        -2.3100    1.6890    1.6940 ca        1 1QT     -0.259300
     15 C23        -1.3070    2.5240    0.9690 c3        1 1QT      0.212800
     16 N2         -1.5070    4.0020    1.3320 n4        1 1QT     -0.779000
     17 C22        -2.0060    4.8430    0.2140 c3        1 1QT      0.067800
     18 C21        -0.9260    5.2740   -0.7980 c3        1 1QT      0.108100
     19 O2         -0.6250    4.2150   -1.6860 oh        1 1QT     -0.598800
     20 C5         -1.4760    6.4420   -1.6690 c3        1 1QT      0.138500
     21 C20        -2.8430    6.0790   -2.2850 c3        1 1QT     -0.051100
     22 C18        -3.3230    7.1060   -3.2470 ca        1 1QT     -0.163300
     23 C19        -2.9180    7.0520   -4.5890 ca        1 1QT     -0.174000
     24 C17        -4.1980    8.1130   -2.8290 ca        1 1QT     -0.113000
     25 C16        -4.6520    9.0650   -3.7440 ca        1 1QT     -0.100000
     26 C15        -4.2150    9.0340   -5.0660 ca        1 1QT     -0.093000
     27 C14        -3.3310    8.0310   -5.4960 ca        1 1QT     -0.043300
     28 C13        -2.8170    8.0330   -6.8940 c3        1 1QT     -0.053100
     29 C12        -1.7900    9.1320   -7.1100 c3        1 1QT     -0.082400
     30 C11        -0.4990    8.8740   -6.3590 c3        1 1QT     -0.066400
     31 C10         0.2390   10.1620   -6.0610 c3        1 1QT     -0.091400
     32 C9          1.4380    9.9620   -5.1570 c3        1 1QT     -0.085400
     33 C8          1.0500    9.5460   -3.7470 c3        1 1QT     -0.081400
     34 C7          1.5500    8.1430   -3.4280 c3        1 1QT     -0.158400
     35 C6          0.7610    7.5320   -2.3060 c         1 1QT      0.564100
     36 O1          0.9930    7.5380   -1.1080 o         1 1QT     -0.435100
     37 N1         -0.5000    6.8110   -2.7500 n4        1 1QT     -0.694800
     38 H1          0.0410    0.4130   -0.8280 hc        1 1QT      0.074200
     39 H2         -0.5950   -1.0190    0.1000 hc        1 1QT      0.074200
     40 H3          2.3410   -0.3720   -0.4510 hc        1 1QT      0.076200
     41 H4          1.6890   -1.8190    0.4280 hc        1 1QT      0.076200
     42 H5          2.4540    0.8540    1.6850 hc        1 1QT      0.074200
     43 H6          1.7530   -0.5920    2.5460 hc        1 1QT      0.074200
     44 H7          0.8240    2.4600    0.4800 hc        1 1QT      0.072200
     45 H8          0.4800    2.5370    2.2670 hc        1 1QT      0.072200
     46 H9         -2.5030   -1.1450    3.6250 ha        1 1QT      0.185000
     47 H10        -4.9290   -0.4880    3.6120 ha        1 1QT      0.172000
     48 H11        -6.6420    0.6730    1.9930 hc        1 1QT      0.060200
     49 H12        -6.2550    2.3740    1.5210 hc        1 1QT      0.060200
     50 H13        -6.0530    3.0110    3.9480 hc        1 1QT      0.047700
     51 H14        -7.6680    2.2800    3.5740 hc        1 1QT      0.047700
     52 H15        -6.4060    1.3000    4.4280 hc        1 1QT      0.047700
     53 H16        -4.0250    2.8730    1.0600 ha        1 1QT      0.111000
     54 H17        -1.4870    2.4430   -0.1470 hx        1 1QT      0.106700
     55 H18        -2.2020    4.0380    2.0970 hn        1 1QT      0.460800
     56 H20        -2.8080    4.2580   -0.3300 hx        1 1QT      0.124200
     57 H21        -2.4690    5.7710    0.6640 hx        1 1QT      0.124200
     58 H22         0.0010    5.6280   -0.2580 h1        1 1QT      0.086700
     59 H23         0.0480    3.6520   -1.2760 ho        1 1QT      0.439000
     60 H24        -1.5850    7.3510   -1.0040 hx        1 1QT      0.120700
     61 H25        -3.5780    5.9900   -1.4390 hc        1 1QT      0.087700
     62 H26        -2.7680    5.0750   -2.7850 hc        1 1QT      0.087700
     63 H27        -2.3090    6.2080   -4.9500 ha        1 1QT      0.127000
     64 H28        -4.5470    8.1520   -1.7860 ha        1 1QT      0.139000
     65 H29        -5.3620    9.8430   -3.4180 ha        1 1QT      0.166000
     66 H30        -4.5670    9.7930   -5.7840 ha        1 1QT      0.167000
     67 H31        -3.6760    8.1950   -7.6030 hc        1 1QT      0.070700
     68 H32        -2.3640    7.0370   -7.1460 hc        1 1QT      0.070700
     69 H33        -2.2330   10.1130   -6.7910 hc        1 1QT      0.066200
     70 H34        -1.5700    9.2110   -8.2080 hc        1 1QT      0.066200
     71 H35         0.1580    8.1900   -6.9570 hc        1 1QT      0.014200
     72 H36        -0.7270    8.3430   -5.3920 hc        1 1QT      0.014200
     73 H37        -0.4620   10.9020   -5.5890 hc        1 1QT      0.067200
     74 H38         0.5900   10.6150   -7.0280 hc        1 1QT      0.067200
     75 H39         2.0030   10.9320   -5.1010 hc        1 1QT      0.068200
     76 H40         2.1330    9.2110   -5.6170 hc        1 1QT      0.068200
     77 H41        -0.0640    9.6000   -3.6270 hc        1 1QT      0.063200
     78 H42         1.4930   10.2640   -3.0050 hc        1 1QT      0.063200
     79 H43         1.5030    7.4930   -4.3450 hc        1 1QT      0.115200
     80 H44         2.6270    8.1890   -3.0960 hc        1 1QT      0.115200
     81 H45        -0.2290    5.9490   -3.2440 hn        1 1QT      0.482800
     82 H221       -0.6260    4.3860    1.6900 hn        1 1QT      0.460800
     83 H121       -0.9900    7.4280   -3.4300 hn        1 1QT      0.482800
@<TRIPOS>BOND
     1    1    2 1   
     2    1    4 1   
     3    1   38 1   
     4    1   39 1   
     5    2    3 1   
     6    2   40 1   
     7    2   41 1   
     8    3    4 1   
     9    3   42 1   
    10    3   43 1   
    11    4    5 1   
    12    4    6 1   
    13    5   15 1   
    14    5   44 1   
    15    5   45 1   
    16    6    7 1   
    17    7    8 ar  
    18    7   14 ar  
    19    8    9 ar  
    20    8   46 1   
    21    9   10 ar  
    22    9   47 1   
    23   10   11 1   
    24   10   13 ar  
    25   11   12 1   
    26   11   48 1   
    27   11   49 1   
    28   12   50 1   
    29   12   51 1   
    30   12   52 1   
    31   13   14 ar  
    32   13   53 1   
    33   14   15 1   
    34   15   16 1   
    35   15   54 1   
    36   16   17 1   
    37   16   55 1   
    38   16   82 1   
    39   17   18 1   
    40   17   56 1   
    41   17   57 1   
    42   18   19 1   
    43   18   20 1   
    44   18   58 1   
    45   19   59 1   
    46   20   21 1   
    47   20   37 1   
    48   20   60 1   
    49   21   22 1   
    50   21   61 1   
    51   21   62 1   
    52   22   23 ar  
    53   22   24 ar  
    54   23   27 ar  
    55   23   63 1   
    56   24   25 ar  
    57   24   64 1   
    58   25   26 ar  
    59   25   65 1   
    60   26   27 ar  
    61   26   66 1   
    62   27   28 1   
    63   28   29 1   
    64   28   67 1   
    65   28   68 1   
    66   29   30 1   
    67   29   69 1   
    68   29   70 1   
    69   30   31 1   
    70   30   71 1   
    71   30   72 1   
    72   31   32 1   
    73   31   73 1   
    74   31   74 1   
    75   32   33 1   
    76   32   75 1   
    77   32   76 1   
    78   33   34 1   
    79   33   77 1   
    80   33   78 1   
    81   34   35 1   
    82   34   79 1   
    83   34   80 1   
    84   35   36 2   
    85   35   37 1   
    86   37   81 1   
    87   37   83 1   
@<TRIPOS>SUBSTRUCTURE
     1 1QT         1 TEMP              0 ****  ****    0 ROOT
