@<TRIPOS>MOLECULE
1QU
   83    87     1     0     0
SMALL
bcc


@<TRIPOS>ATOM
      1 O1           1.6810     3.5450    -2.6760 o          1 1QU      -0.757500
      2 C1           1.7700     2.8910    -1.6120 c          1 1QU       0.740500
      3 C2           2.1050     3.4530    -0.2420 c3         1 1QU      -0.149400
      4 C3           2.1230     2.2530     0.7020 c3         1 1QU      -0.098400
      5 C4           1.7390     1.0270    -0.1520 c3         1 1QU       0.078000
      6 N1           1.5640     1.5120    -1.5240 n          1 1QU      -0.373000
      7 C33          1.3060     0.6820    -2.6160 cc         1 1QU      -0.002600
      8 C13          1.7720     0.9750    -3.8710 cd         1 1QU      -0.099000
      9 C5           0.4770    -0.5450    -2.4040 c          1 1QU       0.684700
     10 O4           0.0400    -0.9130    -1.3090 o          1 1QU      -0.540500
     11 N2           0.1880    -1.3330    -3.5670 n          1 1QU      -0.297000
     12 C6          -0.5570    -2.5970    -3.4140 c3         1 1QU       0.064700
     13 C7           0.2010    -3.8200    -3.9720 c3         1 1QU      -0.101900
     14 C8          -0.4480    -4.1950    -5.2950 c3         1 1QU      -0.090900
     15 C9          -1.7500    -3.4140    -5.4140 c3         1 1QU      -0.090900
     16 C10         -1.9170    -2.5970    -4.1430 c3         1 1QU      -0.101900
     17 C11          0.5880    -0.9430    -4.8010 cc         1 1QU       0.108600
     18 C12          1.3500     0.2020    -5.0020 cd         1 1QU      -0.349200
     19 C26          1.8110     0.6620    -6.2940 c          1 1QU       0.595300
     20 O2           2.9220     1.0320    -6.6430 o          1 1QU      -0.421100
     21 N3           0.7210     0.8150    -7.3510 ny         1 1QU      -0.689800
     22 C27          0.5520     2.2470    -7.7900 c3         1 1QU       0.092500
     23 C31         -0.4050     2.3180    -8.9940 c3         1 1QU      -0.051100
     24 C20          0.0360     1.4180   -10.0920 ca         1 1QU      -0.172300
     25 C21          0.9540     1.8680   -11.0480 ca         1 1QU      -0.133500
     26 C22          1.3310     1.0350   -12.1010 ca         1 1QU      -0.107500
     27 C23          0.7930    -0.2480   -12.2080 ca         1 1QU      -0.086000
     28 C24         -0.1280    -0.6990   -11.2590 ca         1 1QU      -0.107500
     29 C25         -0.5050     0.1290   -10.2040 ca         1 1QU      -0.133500
     30 C28          0.0880     3.1780    -6.6350 c3         1 1QU       0.119100
     31 O3          -0.7970     4.1780    -7.0950 oh         1 1QU      -0.590800
     32 C29          1.3090     3.9540    -6.0830 c3         1 1QU       0.099800
     33 N4           0.9340     4.9580    -5.0530 ny         1 1QU      -0.756000
     34 C30          2.0950     5.8190    -4.6370 c3         1 1QU       0.183100
     35 C14          2.5740     6.7160    -5.7240 ca         1 1QU      -0.192300
     36 C15          1.7300     7.7090    -6.2340 ca         1 1QU      -0.074000
     37 C19          3.8960     6.6230    -6.1800 ca         1 1QU      -0.075000
     38 C18          4.3680     7.5160    -7.1400 ca         1 1QU      -0.118000
     39 C17          3.5240     8.4980    -7.6640 ca         1 1QU      -0.034000
     40 C16          2.2040     8.5830    -7.2130 ca         1 1QU      -0.156300
     41 C32          1.2540     9.6310    -7.7950 c3         1 1QU       0.689200
     42 F2           1.8770    10.7190    -8.3440 f          1 1QU      -0.219633
     43 F3           0.3690    10.1440    -6.8800 f          1 1QU      -0.219633
     44 F1           0.4580     9.1320    -8.7990 f          1 1QU      -0.219633
     45 H1           1.3290     4.2050     0.0500 hc         1 1QU       0.102200
     46 H2           3.0970     3.9680    -0.2860 hc         1 1QU       0.102200
     47 H3           3.1370     2.1100     1.1510 hc         1 1QU       0.087200
     48 H4           1.3920     2.3850     1.5380 hc         1 1QU       0.087200
     49 H5           0.7780     0.5680     0.2120 h1         1 1QU       0.088700
     50 H6           2.5440     0.2440    -0.1300 h1         1 1QU       0.088700
     51 H7           2.4650     1.8170    -4.0410 ha         1 1QU       0.165000
     52 H8          -0.7250    -2.7320    -2.3020 h1         1 1QU       0.129700
     53 H9           1.2960    -3.6360    -4.0910 hc         1 1QU       0.074200
     54 H10          0.0880    -4.6580    -3.2340 hc         1 1QU       0.074200
     55 H11          0.2330    -3.9590    -6.1510 hc         1 1QU       0.055700
     56 H12         -0.6440    -5.2980    -5.3320 hc         1 1QU       0.055700
     57 H13         -1.7260    -2.7460    -6.3120 hc         1 1QU       0.055700
     58 H14         -2.6190    -4.1080    -5.5480 hc         1 1QU       0.055700
     59 H15         -2.6670    -3.0850    -3.4660 hc         1 1QU       0.074200
     60 H16         -2.2930    -1.5680    -4.3610 hc         1 1QU       0.074200
     61 H17          0.2920    -1.6150    -5.6360 h4         1 1QU       0.177000
     62 H18         -0.1670     0.4560    -6.9920 hn         1 1QU       0.465300
     63 H19          1.5790     2.5780    -8.1460 hx         1 1QU       0.130700
     64 H20         -1.4490     2.0580    -8.6730 hc         1 1QU       0.092200
     65 H21         -0.4120     3.3870    -9.3500 hc         1 1QU       0.092200
     66 H22          1.3640     2.8870   -10.9840 ha         1 1QU       0.131500
     67 H23          2.0460     1.3980   -12.8590 ha         1 1QU       0.163000
     68 H24          1.0820    -0.9010   -13.0490 ha         1 1QU       0.169000
     69 H25         -0.5710    -1.7030   -11.3570 ha         1 1QU       0.163000
     70 H26         -1.2720    -0.2130    -9.4930 ha         1 1QU       0.131500
     71 H27         -0.4010     2.5830    -5.8100 h1         1 1QU       0.065700
     72 H28         -1.6490     3.7700    -7.3130 ho         1 1QU       0.453000
     73 H29          1.8150     4.5070    -6.9280 hx         1 1QU       0.120700
     74 H30          2.0360     3.2240    -5.6230 hx         1 1QU       0.120700
     75 H31          0.5800     4.4740    -4.2130 hn         1 1QU       0.471300
     76 H33          1.7310     6.4310    -3.7570 hx         1 1QU       0.120200
     77 H34          2.9110     5.1290    -4.2700 hx         1 1QU       0.120200
     78 H35          0.7010     7.8310    -5.8590 ha         1 1QU       0.149000
     79 H36          4.5740     5.8590    -5.7650 ha         1 1QU       0.149000
     80 H37          5.4150     7.4550    -7.4820 ha         1 1QU       0.174000
     81 H38          3.8960     9.2120    -8.4210 ha         1 1QU       0.185000
     82 H32          0.9740     0.2740    -8.1980 hn         1 1QU       0.465300
     83 H42          0.1890     5.5550    -5.4390 hn         1 1QU       0.471300
@<TRIPOS>BOND
     1     1     2 2   
     2     2     3 1   
     3     2     6 1   
     4     3     4 1   
     5     3    45 1   
     6     3    46 1   
     7     4     5 1   
     8     4    47 1   
     9     4    48 1   
    10     5     6 1   
    11     5    49 1   
    12     5    50 1   
    13     6     7 1   
    14     7     8 2   
    15     7     9 1   
    16     8    18 1   
    17     8    51 1   
    18     9    10 2   
    19     9    11 1   
    20    11    12 1   
    21    11    17 1   
    22    12    13 1   
    23    12    16 1   
    24    12    52 1   
    25    13    14 1   
    26    13    53 1   
    27    13    54 1   
    28    14    15 1   
    29    14    55 1   
    30    14    56 1   
    31    15    16 1   
    32    15    57 1   
    33    15    58 1   
    34    16    59 1   
    35    16    60 1   
    36    17    18 2   
    37    17    61 1   
    38    18    19 1   
    39    19    20 2   
    40    19    21 1   
    41    21    22 1   
    42    21    62 1   
    43    21    82 1   
    44    22    23 1   
    45    22    30 1   
    46    22    63 1   
    47    23    24 1   
    48    23    64 1   
    49    23    65 1   
    50    24    25 ar  
    51    24    29 ar  
    52    25    26 ar  
    53    25    66 1   
    54    26    27 ar  
    55    26    67 1   
    56    27    28 ar  
    57    27    68 1   
    58    28    29 ar  
    59    28    69 1   
    60    29    70 1   
    61    30    31 1   
    62    30    32 1   
    63    30    71 1   
    64    31    72 1   
    65    32    33 1   
    66    32    73 1   
    67    32    74 1   
    68    33    34 1   
    69    33    75 1   
    70    33    83 1   
    71    34    35 1   
    72    34    76 1   
    73    34    77 1   
    74    35    36 ar  
    75    35    37 ar  
    76    36    40 ar  
    77    36    78 1   
    78    37    38 ar  
    79    37    79 1   
    80    38    39 ar  
    81    38    80 1   
    82    39    40 ar  
    83    39    81 1   
    84    40    41 1   
    85    41    42 1   
    86    41    43 1   
    87    41    44 1   
@<TRIPOS>SUBSTRUCTURE
     1 1QU         1 TEMP              0 ****  ****    0 ROOT
