@<TRIPOS>MOLECULE
1QU
   83    87     1     0     0
SMALL
bcc


@<TRIPOS>ATOM
      1 O1         -2.6720    1.1810   -0.8950 o         1 1QU     -0.803500
      2 C1         -1.5710    1.3410   -0.3080 c         1 1QU      0.743500
      3 C2         -1.3910    1.7400    1.1470 c3        1 1QU     -0.153400
      4 C3          0.1190    1.7970    1.3710 c3        1 1QU     -0.097400
      5 C4          0.7670    1.4220    0.0220 c3        1 1QU      0.074000
      6 N1         -0.3340    1.1590   -0.9110 n         1 1QU     -0.365000
      7 C33        -0.1400    0.8110   -2.2550 cc        1 1QU     -0.031600
      8 C13        -0.8970   -0.1550   -2.8650 cd        1 1QU     -0.079000
      9 C5          0.9130    1.5350   -3.0290 c         1 1QU      0.684700
     10 O4          1.6300    2.4290   -2.5680 o         1 1QU     -0.538500
     11 N2          1.0800    1.1390   -4.3980 n         1 1QU     -0.291000
     12 C6          2.1690    1.7410   -5.1970 c3        1 1QU      0.062700
     13 C7          1.6600    2.5270   -6.4230 c3        1 1QU     -0.099900
     14 C8          1.9010    1.6610   -7.6500 c3        1 1QU     -0.093400
     15 C9          2.8210    0.5190   -7.2410 c3        1 1QU     -0.093400
     16 C10         3.1480    0.6930   -5.7660 c3        1 1QU     -0.099900
     17 C11         0.2470    0.2510   -4.9740 cc        1 1QU      0.158600
     18 C12        -0.7890   -0.3890   -4.2690 cd        1 1QU     -0.350200
     19 C26        -1.6760   -1.2170   -5.0440 c         1 1QU      0.580300
     20 O2         -1.6400   -1.4250   -6.2560 o         1 1QU     -0.461100
     21 N3         -2.8130   -1.9410   -4.3440 n4        1 1QU     -0.671800
     22 C27        -4.0810   -1.1290   -4.2670 c3        1 1QU      0.142500
     23 C31        -5.3220   -2.0400   -4.3160 c3        1 1QU     -0.048100
     24 C20        -5.2640   -3.0240   -5.4280 ca        1 1QU     -0.176300
     25 C21        -4.9420   -4.3630   -5.1630 ca        1 1QU     -0.126500
     26 C22        -4.9320   -5.2970   -6.1970 ca        1 1QU     -0.109500
     27 C23        -5.2430   -4.9040   -7.5000 ca        1 1QU     -0.085000
     28 C24        -5.5670   -3.5730   -7.7670 ca        1 1QU     -0.109500
     29 C25        -5.5800   -2.6360   -6.7360 ca        1 1QU     -0.126500
     30 C28        -4.0900   -0.2640   -2.9800 c3        1 1QU      0.102100
     31 O3         -3.9440   -1.1590   -1.8930 oh        1 1QU     -0.611800
     32 C29        -5.4200    0.5010   -2.8340 c3        1 1QU      0.079800
     33 N4         -5.3190    1.5740   -1.8080 n4        1 1QU     -0.764000
     34 C30        -6.6600    2.1530   -1.4490 c3        1 1QU      0.179100
     35 C14        -6.5050    3.3580   -0.5860 ca        1 1QU     -0.190300
     36 C15        -5.8750    3.2500    0.6580 ca        1 1QU     -0.075000
     37 C19        -7.0300    4.5910   -0.9980 ca        1 1QU     -0.063000
     38 C18        -6.9210    5.7060   -0.1690 ca        1 1QU     -0.113000
     39 C17        -6.2690    5.6090    1.0640 ca        1 1QU     -0.028000
     40 C16        -5.7400    4.3800    1.4650 ca        1 1QU     -0.160300
     41 C32        -4.9900    4.2370    2.7890 c3        1 1QU      0.691200
     42 F2         -3.6840    3.8310    2.6160 f         1 1QU     -0.223967
     43 F3         -4.9050    5.3810    3.5330 f         1 1QU     -0.223967
     44 F1         -5.5230    3.2930    3.6290 f         1 1QU     -0.223967
     45 H1         -1.8830    2.7300    1.3310 hc        1 1QU      0.104200
     46 H2         -1.8830    0.9790    1.8040 hc        1 1QU      0.104200
     47 H3          0.4410    2.8210    1.6830 hc        1 1QU      0.088700
     48 H4          0.4360    1.0790    2.1670 hc        1 1QU      0.088700
     49 H5          1.4070    2.2640   -0.3650 h1        1 1QU      0.090700
     50 H6          1.3990    0.4980    0.1160 h1        1 1QU      0.090700
     51 H7         -1.6020   -0.7470   -2.2580 ha        1 1QU      0.140000
     52 H8          2.7220    2.4400   -4.5000 h1        1 1QU      0.124700
     53 H9          2.2570    3.4740   -6.4930 hc        1 1QU      0.072450
     54 H10         0.5860    2.8210   -6.3350 hc        1 1QU      0.072450
     55 H11         0.9330    1.2620   -8.0490 hc        1 1QU      0.062450
     56 H12         2.3640    2.2690   -8.4690 hc        1 1QU      0.062450
     57 H13         3.7600    0.5280   -7.8500 hc        1 1QU      0.062450
     58 H14         2.3250   -0.4690   -7.4210 hc        1 1QU      0.062450
     59 H15         4.1880    1.0980   -5.6440 hc        1 1QU      0.072450
     60 H16         3.1090   -0.2810   -5.2200 hc        1 1QU      0.072450
     61 H17         0.4100    0.0410   -6.0600 h4        1 1QU      0.212000
     62 H18        -2.5370   -2.2240   -3.3980 hn        1 1QU      0.476300
     63 H19        -4.0880   -0.4470   -5.1690 hx        1 1QU      0.114700
     64 H20        -6.2160   -1.3730   -4.4560 hc        1 1QU      0.085200
     65 H21        -5.4340   -2.5650   -3.3280 hc        1 1QU      0.085200
     66 H22        -4.7370   -4.6900   -4.1320 ha        1 1QU      0.133500
     67 H23        -4.6910   -6.3510   -5.9820 ha        1 1QU      0.162000
     68 H24        -5.2420   -5.6460   -8.3150 ha        1 1QU      0.166000
     69 H25        -5.8240   -3.2640   -8.7940 ha        1 1QU      0.162000
     70 H26        -5.8560   -1.5920   -6.9500 ha        1 1QU      0.133500
     71 H27        -3.2320    0.4740   -3.0170 h1        1 1QU      0.098700
     72 H28        -3.5140   -0.6920   -1.1580 ho        1 1QU      0.456000
     73 H29        -5.7120    0.9690   -3.8160 hx        1 1QU      0.119700
     74 H30        -6.2280   -0.2200   -2.5100 hx        1 1QU      0.119700
     75 H31        -4.6970    2.3210   -2.1440 hn        1 1QU      0.466300
     76 H33        -7.2420    1.3500   -0.9100 hx        1 1QU      0.112200
     77 H34        -7.1960    2.4100   -2.4080 hx        1 1QU      0.112200
     78 H35        -5.4920    2.2840    1.0240 ha        1 1QU      0.142000
     79 H36        -7.5440    4.6820   -1.9690 ha        1 1QU      0.154000
     80 H37        -7.3520    6.6710   -0.4850 ha        1 1QU      0.178000
     81 H38        -6.1760    6.4950    1.7180 ha        1 1QU      0.187000
     82 H32        -3.0260   -2.7960   -4.8960 hn        1 1QU      0.476300
     83 H42        -4.8730    1.1950   -0.9550 hn        1 1QU      0.466300
@<TRIPOS>BOND
     1    1    2 2   
     2    2    3 1   
     3    2    6 1   
     4    3    4 1   
     5    3   45 1   
     6    3   46 1   
     7    4    5 1   
     8    4   47 1   
     9    4   48 1   
    10    5    6 1   
    11    5   49 1   
    12    5   50 1   
    13    6    7 1   
    14    7    8 2   
    15    7    9 1   
    16    8   18 1   
    17    8   51 1   
    18    9   10 2   
    19    9   11 1   
    20   11   12 1   
    21   11   17 1   
    22   12   13 1   
    23   12   16 1   
    24   12   52 1   
    25   13   14 1   
    26   13   53 1   
    27   13   54 1   
    28   14   15 1   
    29   14   55 1   
    30   14   56 1   
    31   15   16 1   
    32   15   57 1   
    33   15   58 1   
    34   16   59 1   
    35   16   60 1   
    36   17   18 2   
    37   17   61 1   
    38   18   19 1   
    39   19   20 2   
    40   19   21 1   
    41   21   22 1   
    42   21   62 1   
    43   21   82 1   
    44   22   23 1   
    45   22   30 1   
    46   22   63 1   
    47   23   24 1   
    48   23   64 1   
    49   23   65 1   
    50   24   25 ar  
    51   24   29 ar  
    52   25   26 ar  
    53   25   66 1   
    54   26   27 ar  
    55   26   67 1   
    56   27   28 ar  
    57   27   68 1   
    58   28   29 ar  
    59   28   69 1   
    60   29   70 1   
    61   30   31 1   
    62   30   32 1   
    63   30   71 1   
    64   31   72 1   
    65   32   33 1   
    66   32   73 1   
    67   32   74 1   
    68   33   34 1   
    69   33   75 1   
    70   33   83 1   
    71   34   35 1   
    72   34   76 1   
    73   34   77 1   
    74   35   36 ar  
    75   35   37 ar  
    76   36   40 ar  
    77   36   78 1   
    78   37   38 ar  
    79   37   79 1   
    80   38   39 ar  
    81   38   80 1   
    82   39   40 ar  
    83   39   81 1   
    84   40   41 1   
    85   41   42 1   
    86   41   43 1   
    87   41   44 1   
@<TRIPOS>SUBSTRUCTURE
     1 1QU         1 TEMP              0 ****  ****    0 ROOT
