@<TRIPOS>MOLECULE
molecule
   20    21     1     0     0
SMALL
bcc


@<TRIPOS>ATOM
      1 C01          0.0000     0.0000     0.0000 ca         1 1QV       0.089900
      2 C02          1.3920     0.0000     0.0000 ca         1 1QV       0.160900
      3 C03          2.0820     0.0000     1.1950 ca         1 1QV       0.124900
      4 C04          1.3860     0.0010     2.4040 ca         1 1QV      -0.044100
      5 C05         -0.0110     0.0020     2.4180 ca         1 1QV       0.066400
      6 C06         -0.6990     0.0010     1.1840 ca         1 1QV       0.198900
      7 C07          0.3360     0.0020     4.6400 cc         1 1QV       0.067600
      8 F01         -0.6690     0.0050    -1.1740 f          1 1QV      -0.073900
      9 F02          2.0670    -0.0020    -1.1700 f          1 1QV      -0.066900
     10 F03          3.4320    -0.0000     1.1930 f          1 1QV      -0.088900
     11 F04         -2.0490     0.0030     1.1670 f          1 1QV      -0.073900
     12 N01         -0.5010     0.0030     3.6730 nd         1 1QV      -0.413100
     13 N02         -0.2430    -1.5770     6.8180 nz         1 1QV      -0.810500
     14 O01          0.9890     0.5490     7.0520 o          1 1QV      -0.485300
     15 O02         -1.4270     0.5490     6.4090 o          1 1QV      -0.485300
     16 S01         -0.1170     0.0040     6.3430 sy         1 1QV       1.205000
     17 S02          1.9460     0.0020     4.0740 ss         1 1QV       0.133900
     18 H1          -0.9470    -2.0340     6.2720 hn         1 1QV       0.497467
     19 H2          -0.4950    -1.6160     7.7860 hn         1 1QV       0.497467
     20 H023         0.6350    -2.0370     6.6830 hn         1 1QV       0.497467
@<TRIPOS>BOND
     1     9     2 1   
     2    10     3 1   
     3     2     3 ar  
     4     2     1 ar  
     5     3     4 ar  
     6     8     1 1   
     7     1     6 ar  
     8     4    17 1   
     9     4     5 ar  
    10    17     7 1   
    11     6     5 ar  
    12     6    11 1   
    13     5    12 1   
    14    12     7 2   
    15     7    16 1   
    16    13    16 1   
    17    14    16 2   
    18    16    15 2   
    19    13    18 1   
    20    13    19 1   
    21    20    13 1   
@<TRIPOS>SUBSTRUCTURE
     1 1QV         1 TEMP              0 ****  ****    0 ROOT
