@<TRIPOS>MOLECULE
1QV
   20    21     1     0     0
SMALL
bcc


@<TRIPOS>ATOM
      1 C01          0.0000     0.0000     0.0000 ca         1 1QV       0.085900
      2 C02          1.3920     0.0000     0.0000 ca         1 1QV       0.158900
      3 C03          2.0820     0.0000     1.1950 ca         1 1QV       0.130900
      4 C04          1.3860     0.0010     2.4040 ca         1 1QV       0.020900
      5 C05         -0.0110     0.0020     2.4180 ca         1 1QV      -0.006600
      6 C06         -0.6990     0.0010     1.1840 ca         1 1QV       0.194900
      7 C07          0.3360     0.0020     4.6400 cc         1 1QV       0.183600
      8 F01         -0.6690     0.0050    -1.1740 f          1 1QV      -0.072900
      9 F02          2.0670    -0.0020    -1.1700 f          1 1QV      -0.069900
     10 F03          3.4320    -0.0000     1.1930 f          1 1QV      -0.081900
     11 F04         -2.0490     0.0030     1.1670 f          1 1QV      -0.078900
     12 N01         -0.5010     0.0030     3.6730 nd         1 1QV      -0.240100
     13 N02         -0.2430    -1.5770     6.8180 nz         1 1QV      -0.127500
     14 O01          0.9890     0.5490     7.0520 o          1 1QV      -0.466800
     15 O02         -1.4270     0.5490     6.4090 o          1 1QV      -0.466800
     16 S01         -0.1170     0.0040     6.3430 sy         1 1QV       0.900000
     17 S02          1.9460     0.0020     4.0740 ss         1 1QV      -0.015100
     18 H1          -0.9470    -2.0340     6.2720 hn         1 1QV       0.317133
     19 H2          -0.4950    -1.6160     7.7860 hn         1 1QV       0.317133
     20 H023         0.6350    -2.0370     6.6830 hn         1 1QV       0.317133
@<TRIPOS>BOND
     1     1     2 ar  
     2     1     6 ar  
     3     1     8 1   
     4     2     3 ar  
     5     2     9 1   
     6     3     4 ar  
     7     3    10 1   
     8     4     5 ar  
     9     4    17 1   
    10     5     6 ar  
    11     5    12 1   
    12     6    11 1   
    13     7    12 2   
    14     7    16 1   
    15     7    17 1   
    16    13    16 1   
    17    13    18 1   
    18    13    19 1   
    19    13    20 1   
    20    14    16 2   
    21    15    16 2   
@<TRIPOS>SUBSTRUCTURE
     1 1QV         1 TEMP              0 ****  ****    0 ROOT
