@<TRIPOS>MOLECULE
1QV
   20    21     1     0     0
SMALL
bcc


@<TRIPOS>ATOM
      1 C01         -0.0870     0.1160     0.1650 ca         1 1QV       0.093900
      2 C02          1.3550     0.0580     0.1440 ca         1 1QV       0.174900
      3 C03          2.0900    -0.0150     1.3380 ca         1 1QV       0.109900
      4 C04          1.4080    -0.0380     2.5790 ca         1 1QV      -0.134100
      5 C05         -0.0400     0.0150     2.6050 ca         1 1QV       0.066400
      6 C06         -0.7850     0.0980     1.3760 ca         1 1QV       0.181900
      7 C07          0.4250    -0.1100     4.7920 cc         1 1QV      -0.219400
      8 F01         -0.7460     0.1890    -1.0070 f          1 1QV      -0.068900
      9 F02          1.9830     0.0770    -1.0420 f          1 1QV      -0.058900
     10 F03          3.4380    -0.0650     1.3020 f          1 1QV      -0.084900
     11 F04         -2.1260     0.1570     1.4040 f          1 1QV      -0.069900
     12 N01         -0.5740    -0.0260     3.8550 nd         1 1QV      -0.417100
     13 N02         -1.2180     1.1530     6.4960 nz         1 1QV      -0.786500
     14 O01          0.9780     0.0970     7.2250 o          1 1QV      -0.550300
     15 O02         -0.8440    -1.3430     6.6210 o          1 1QV      -0.550300
     16 S01         -0.0130    -0.2870     6.3530 sy         1 1QV       1.450000
     17 S02          1.9770    -0.1200     4.1220 ss         1 1QV       0.461900
     18 H1          -1.0320     1.6970     7.3400 hn         1 1QV       0.467133
     19 H2          -1.1800     1.7960     5.7070 hn         1 1QV       0.467133
     20 H023        -2.1770     0.8040     6.5570 hn         1 1QV       0.467133
@<TRIPOS>BOND
     1     1     2 ar  
     2     1     6 ar  
     3     1     8 1   
     4     2     3 ar  
     5     2     9 1   
     6     3     4 ar  
     7     3    10 1   
     8     4     5 ar  
     9     4    17 1   
    10     5     6 ar  
    11     5    12 1   
    12     6    11 1   
    13     7    12 2   
    14     7    16 1   
    15     7    17 1   
    16    13    16 1   
    17    13    18 1   
    18    13    19 1   
    19    13    20 1   
    20    14    16 2   
    21    15    16 2   
@<TRIPOS>SUBSTRUCTURE
     1 1QV         1 TEMP              0 ****  ****    0 ROOT
