@<TRIPOS>MOLECULE
1QW
   49    48     1     0     0
SMALL
bcc


@<TRIPOS>ATOM
      1 CH1         0.0030    0.1930    0.4330 c3        1 1QW      0.138400
      2 CH2         1.4060   -0.2100   -0.0240 c3        1 1QW      0.140100
      3 CH3         1.7320    0.4390   -1.3740 c3        1 1QW      0.092400
      4 OH1        -0.6450   -1.0280    0.8270 os        1 1QW     -0.444900
      5 OH2         2.3030    0.2490    0.9760 oh        1 1QW     -0.599800
      6 OH3         3.0630    0.0540   -1.6800 oh        1 1QW     -0.611800
      7 C1         -1.8950   -0.9090    1.3730 c         1 1QW      0.634100
      8 O1         -2.3950    0.2150    1.4440 o         1 1QW     -0.542000
      9 C2         -2.4510   -2.2250    1.8200 c3        1 1QW     -0.127400
     10 C3         -3.9500   -2.2810    1.6110 c3        1 1QW     -0.079400
     11 C4         -4.5250   -3.5550    2.1930 c3        1 1QW     -0.078400
     12 C5         -6.0210   -3.6260    1.9730 c3        1 1QW     -0.079400
     13 C6         -6.6010   -4.8960    2.5580 c3        1 1QW     -0.079400
     14 C7         -8.0970   -4.9680    2.3400 c3        1 1QW     -0.079400
     15 C8         -8.6770   -6.2380    2.9240 c3        1 1QW     -0.078400
     16 C9        -10.1730   -6.3090    2.7080 c3        1 1QW     -0.079400
     17 C10       -10.7530   -7.5790    3.2920 c3        1 1QW     -0.079400
     18 C11       -12.2500   -7.6500    3.0780 c3        1 1QW     -0.080400
     19 C12       -12.8320   -8.9130    3.6590 c3        1 1QW     -0.092100
     20 H1          0.0460    0.8910    1.3100 h1        1 1QW      0.068200
     21 H2         -0.5900    0.6590   -0.3960 h1        1 1QW      0.068200
     22 H3          1.4870   -1.3300   -0.1160 h1        1 1QW      0.069700
     23 H4          1.6580    1.5560   -1.2980 h1        1 1QW      0.037700
     24 H5          1.0300    0.0660   -2.1650 h1        1 1QW      0.037700
     25 H6          3.1940    0.0560    0.6550 ho        1 1QW      0.421000
     26 H7          3.3130    0.5290   -2.4810 ho        1 1QW      0.410000
     27 H8         -2.2040   -2.3390    2.9100 hc        1 1QW      0.079200
     28 H9         -1.9440   -3.0570    1.2650 hc        1 1QW      0.079200
     29 H10        -4.4280   -1.3870    2.0940 hc        1 1QW      0.057200
     30 H11        -4.1800   -2.2270    0.5150 hc        1 1QW      0.057200
     31 H12        -4.0320   -4.4430    1.7170 hc        1 1QW      0.041200
     32 H13        -6.2430   -3.5820    0.8740 hc        1 1QW      0.042700
     33 H14        -6.1090   -5.7870    2.0840 hc        1 1QW      0.040200
     34 H15        -8.5880   -4.0770    2.8130 hc        1 1QW      0.040200
     35 H16        -8.4530   -6.2830    4.0230 hc        1 1QW      0.039700
     36 H17        -8.1860   -7.1280    2.4500 hc        1 1QW      0.039700
     37 H18       -10.6640   -5.4180    3.1820 hc        1 1QW      0.039700
     38 H19       -10.3970   -6.2630    1.6100 hc        1 1QW      0.039700
     39 H20       -10.2630   -8.4690    2.8180 hc        1 1QW      0.039700
     40 H21       -12.4730   -7.6030    1.9790 hc        1 1QW      0.038700
     41 H22       -13.9360   -8.9450    3.4900 hc        1 1QW      0.032700
     42 H23       -12.6420   -8.9660    4.7580 hc        1 1QW      0.032700
     43 H24       -12.3760   -9.8140    3.1810 hc        1 1QW      0.032700
     44 H25        -6.3780   -4.9410    3.6560 hc        1 1QW      0.040200
     45 H26        -8.3200   -4.9230    1.2410 hc        1 1QW      0.040200
     46 H27       -10.5290   -7.6250    4.3910 hc        1 1QW      0.039700
     47 H28       -12.7380   -6.7580    3.5520 hc        1 1QW      0.038700
     48 H29        -4.3040   -3.6020    3.2920 hc        1 1QW      0.041200
     49 H30        -6.5130   -2.7350    2.4460 hc        1 1QW      0.042700
@<TRIPOS>BOND
     1    1    2 1   
     2    1    4 1   
     3    1   20 1   
     4    1   21 1   
     5    2    3 1   
     6    2    5 1   
     7    2   22 1   
     8    3    6 1   
     9    3   23 1   
    10    3   24 1   
    11    4    7 1   
    12    5   25 1   
    13    6   26 1   
    14    7    8 2   
    15    7    9 1   
    16    9   10 1   
    17    9   27 1   
    18    9   28 1   
    19   10   11 1   
    20   10   29 1   
    21   10   30 1   
    22   11   12 1   
    23   11   31 1   
    24   11   48 1   
    25   12   13 1   
    26   12   32 1   
    27   12   49 1   
    28   13   14 1   
    29   13   33 1   
    30   13   44 1   
    31   14   15 1   
    32   14   34 1   
    33   14   45 1   
    34   15   16 1   
    35   15   35 1   
    36   15   36 1   
    37   16   17 1   
    38   16   37 1   
    39   16   38 1   
    40   17   18 1   
    41   17   39 1   
    42   17   46 1   
    43   18   19 1   
    44   18   40 1   
    45   18   47 1   
    46   19   41 1   
    47   19   42 1   
    48   19   43 1   
@<TRIPOS>SUBSTRUCTURE
     1 1QW         1 TEMP              0 ****  ****    0 ROOT
