@<TRIPOS>MOLECULE
molecule
   49    48     1     0     0
SMALL
bcc


@<TRIPOS>ATOM
      1 CH1          0.0000     0.0000     0.0000 c3         1 1QW       0.135400
      2 CH2          1.5300     0.0000     0.0000 c3         1 1QW       0.149100
      3 CH3          2.0390     1.2490    -0.7220 c3         1 1QW       0.132400
      4 OH1         -0.4840    -1.2410     0.5790 os         1 1QW      -0.428900
      5 OH2          2.0070     0.0000     1.3470 oh         1 1QW      -0.591800
      6 OH3          3.4640     1.1930    -0.8250 oh         1 1QW      -0.605800
      7 C1          -1.8140    -1.4010     0.6540 c          1 1QW       0.632100
      8 O1          -2.5510    -0.5320     0.2490 o          1 1QW      -0.552000
      9 C2          -2.3900    -2.6630     1.2430 c3         1 1QW      -0.125400
     10 C3          -3.9180    -2.5910     1.2100 c3         1 1QW      -0.072400
     11 C4          -4.5010    -3.8720     1.8080 c3         1 1QW      -0.083400
     12 C5          -6.0290    -3.7990     1.7740 c3         1 1QW      -0.080400
     13 C6          -6.6140    -5.0810     2.3720 c3         1 1QW      -0.082400
     14 C7          -8.1420    -5.0080     2.3390 c3         1 1QW      -0.081400
     15 C8          -8.7260    -6.2900     2.9370 c3         1 1QW      -0.082400
     16 C9         -10.2540    -6.2180     2.9040 c3         1 1QW      -0.082400
     17 C10        -10.8390    -7.4990     3.5010 c3         1 1QW      -0.081400
     18 C11        -12.3660    -7.4270     3.4690 c3         1 1QW      -0.084400
     19 C12        -12.9510    -8.7080     4.0670 c3         1 1QW      -0.092100
     20 H1          -0.3610     0.8370     0.5860 h1         1 1QW       0.059200
     21 H2          -0.3610     0.0890    -1.0170 h1         1 1QW       0.059200
     22 H3           1.8920    -0.8850    -0.5110 h1         1 1QW       0.052700
     23 H4           1.7520     2.1320    -0.1630 h1         1 1QW       0.032200
     24 H5           1.6080     1.2940    -1.7150 h1         1 1QW       0.032200
     25 H6           2.5070    -0.7840     1.5030 ho         1 1QW       0.412000
     26 H7           3.7690     1.9050    -1.3620 ho         1 1QW       0.407000
     27 H8          -2.0560    -2.7680     2.2680 hc         1 1QW       0.072200
     28 H9          -2.0560    -3.5160     0.6650 hc         1 1QW       0.072200
     29 H10         -4.2520    -1.7370     1.7880 hc         1 1QW       0.058700
     30 H11         -4.2520    -2.4860     0.1840 hc         1 1QW       0.058700
     31 H12         -4.1670    -4.7250     1.2300 hc         1 1QW       0.041200
     32 H13         -6.3640    -3.6940     0.7490 hc         1 1QW       0.044200
     33 H14         -6.2800    -5.9340     1.7940 hc         1 1QW       0.040700
     34 H15         -8.4760    -4.1550     2.9180 hc         1 1QW       0.041700
     35 H16         -8.3910    -6.3960     3.9620 hc         1 1QW       0.040700
     36 H17         -8.3930    -7.1430     2.3580 hc         1 1QW       0.040700
     37 H18        -10.5870    -5.3650     3.4840 hc         1 1QW       0.040700
     38 H19        -10.5890    -6.1110     1.8800 hc         1 1QW       0.040700
     39 H20        -10.5040    -7.6060     4.5260 hc         1 1QW       0.040700
     40 H21        -12.7000    -6.5740     4.0480 hc         1 1QW       0.039700
     41 H22        -12.6140    -9.5620     3.4910 hc         1 1QW       0.032367
     42 H23        -14.0330    -8.6580     4.0390 hc         1 1QW       0.032367
     43 H24        -12.6210    -8.8110     5.0930 hc         1 1QW       0.032367
     44 H25         -6.2790    -5.1860     3.3970 hc         1 1QW       0.040700
     45 H26         -8.4770    -4.9020     1.3140 hc         1 1QW       0.041700
     46 H27        -10.5050    -8.3520     2.9220 hc         1 1QW       0.040700
     47 H28        -12.7010    -7.3210     2.4440 hc         1 1QW       0.039700
     48 H29         -4.1670    -3.9770     2.8330 hc         1 1QW       0.041200
     49 H30         -6.3630    -2.9460     2.3520 hc         1 1QW       0.044200
@<TRIPOS>BOND
     1     5     2 1   
     2     2     1 1   
     3     2     3 1   
     4     6     3 1   
     5     1     4 1   
     6     4     7 1   
     7     8     7 2   
     8     7     9 1   
     9     9    10 1   
    10    10    11 1   
    11    11    12 1   
    12    12    13 1   
    13    13    14 1   
    14    14    15 1   
    15    15    16 1   
    16    16    17 1   
    17    17    18 1   
    18    18    19 1   
    19     1    20 1   
    20     1    21 1   
    21     2    22 1   
    22     3    23 1   
    23     3    24 1   
    24     5    25 1   
    25     6    26 1   
    26     9    27 1   
    27     9    28 1   
    28    10    29 1   
    29    10    30 1   
    30    11    31 1   
    31    12    32 1   
    32    13    33 1   
    33    14    34 1   
    34    15    35 1   
    35    15    36 1   
    36    16    37 1   
    37    16    38 1   
    38    17    39 1   
    39    18    40 1   
    40    19    41 1   
    41    19    42 1   
    42    19    43 1   
    43    13    44 1   
    44    14    45 1   
    45    17    46 1   
    46    18    47 1   
    47    11    48 1   
    48    12    49 1   
@<TRIPOS>SUBSTRUCTURE
     1 1QW         1 TEMP              0 ****  ****    0 ROOT
