@<TRIPOS>MOLECULE
1QW
   49    48     1     0     0
SMALL
bcc


@<TRIPOS>ATOM
      1 CH1          0.1940    -0.9890     0.1040 c3         1 1QW       0.129400
      2 CH2          1.6390    -0.5910    -0.2180 c3         1 1QW       0.120100
      3 CH3          1.7030     0.5390    -1.2490 c3         1 1QW       0.088400
      4 OH1         -0.3050    -1.8270    -0.9320 os         1 1QW      -0.422900
      5 OH2          2.2040    -0.1730     1.0150 oh         1 1QW      -0.601800
      6 OH3          3.0790     0.8220    -1.4370 oh         1 1QW      -0.606800
      7 C1          -1.2070    -1.3410    -1.8510 c          1 1QW       0.623100
      8 O1          -1.4680    -2.1880    -2.7060 o          1 1QW      -0.485000
      9 C2          -1.7830     0.0350    -1.7320 c3         1 1QW      -0.164400
     10 C3          -2.6700     0.3930    -2.9080 c3         1 1QW      -0.073400
     11 C4          -1.8660     0.6900    -4.1560 c3         1 1QW      -0.083400
     12 C5          -2.7710     1.0720    -5.3080 c3         1 1QW      -0.077400
     13 C6          -1.9690     1.3690    -6.5570 c3         1 1QW      -0.078400
     14 C7          -2.8730     1.7520    -7.7100 c3         1 1QW      -0.079400
     15 C8          -2.0720     2.0490    -8.9600 c3         1 1QW      -0.079400
     16 C9          -2.9760     2.4320   -10.1120 c3         1 1QW      -0.078400
     17 C10         -2.2020     2.7570   -11.3720 c3         1 1QW      -0.078400
     18 C11         -1.6940     1.5170   -12.0770 c3         1 1QW      -0.080400
     19 C12         -0.9470     1.8660   -13.3380 c3         1 1QW      -0.093100
     20 H1           0.1910    -1.6430     1.0210 h1         1 1QW       0.069200
     21 H2          -0.4410    -0.0900     0.2910 h1         1 1QW       0.069200
     22 H3           2.2010    -1.4840    -0.6120 h1         1 1QW       0.072700
     23 H4           1.2320     0.2050    -2.2110 h1         1 1QW       0.034200
     24 H5           1.1750     1.4530    -0.8650 h1         1 1QW       0.034200
     25 H6           3.1010     0.1270     0.8150 ho         1 1QW       0.426000
     26 H7           3.1350     1.5070    -2.1120 ho         1 1QW       0.411000
     27 H8          -0.9460     0.7800    -1.6480 hc         1 1QW       0.071200
     28 H9          -2.3860     0.0780    -0.7850 hc         1 1QW       0.071200
     29 H10         -3.3760    -0.4550    -3.1130 hc         1 1QW       0.057200
     30 H11         -3.2830     1.2910    -2.6320 hc         1 1QW       0.057200
     31 H12         -1.2660    -0.2190    -4.4310 hc         1 1QW       0.044700
     32 H13         -3.4900     0.2360    -5.5130 hc         1 1QW       0.041700
     33 H14         -1.2470     2.2030    -6.3530 hc         1 1QW       0.040200
     34 H15         -3.4800     2.6520    -7.4290 hc         1 1QW       0.040200
     35 H16         -1.3500     2.8830    -8.7550 hc         1 1QW       0.040200
     36 H17         -1.4640     1.1480    -9.2390 hc         1 1QW       0.040200
     37 H18         -3.6970     1.5970   -10.3170 hc         1 1QW       0.038700
     38 H19         -3.5840     3.3280    -9.8170 hc         1 1QW       0.038700
     39 H20         -1.3370     3.4260   -11.1220 hc         1 1QW       0.038700
     40 H21         -2.5590     0.8470   -12.3250 hc         1 1QW       0.039200
     41 H22         -0.0670     2.5140   -13.1090 hc         1 1QW       0.032033
     42 H23         -1.6100     2.4160   -14.0500 hc         1 1QW       0.032033
     43 H24         -0.5810     0.9390   -13.8420 hc         1 1QW       0.032033
     44 H25         -1.3630     0.4680    -6.8380 hc         1 1QW       0.040200
     45 H26         -3.5940     0.9170    -7.9150 hc         1 1QW       0.040200
     46 H27         -2.8690     3.3260   -12.0730 hc         1 1QW       0.038700
     47 H28         -1.0190     0.9430   -11.3880 hc         1 1QW       0.039200
     48 H29         -1.1430     1.5240    -3.9540 hc         1 1QW       0.044700
     49 H30         -3.3790     1.9720    -5.0280 hc         1 1QW       0.041700
@<TRIPOS>BOND
     1     1     2 1   
     2     1     4 1   
     3     1    20 1   
     4     1    21 1   
     5     2     3 1   
     6     2     5 1   
     7     2    22 1   
     8     3     6 1   
     9     3    23 1   
    10     3    24 1   
    11     4     7 1   
    12     5    25 1   
    13     6    26 1   
    14     7     8 2   
    15     7     9 1   
    16     9    10 1   
    17     9    27 1   
    18     9    28 1   
    19    10    11 1   
    20    10    29 1   
    21    10    30 1   
    22    11    12 1   
    23    11    31 1   
    24    11    48 1   
    25    12    13 1   
    26    12    32 1   
    27    12    49 1   
    28    13    14 1   
    29    13    33 1   
    30    13    44 1   
    31    14    15 1   
    32    14    34 1   
    33    14    45 1   
    34    15    16 1   
    35    15    35 1   
    36    15    36 1   
    37    16    17 1   
    38    16    37 1   
    39    16    38 1   
    40    17    18 1   
    41    17    39 1   
    42    17    46 1   
    43    18    19 1   
    44    18    40 1   
    45    18    47 1   
    46    19    41 1   
    47    19    42 1   
    48    19    43 1   
@<TRIPOS>SUBSTRUCTURE
     1 1QW         1 TEMP              0 ****  ****    0 ROOT
