@<TRIPOS>MOLECULE
1QX
   53    51     1     0     0
SMALL
bcc


@<TRIPOS>ATOM
      1 C12         0.6950    0.0960    3.8060 c3        1 1QX     -0.211000
      2 C11         1.2670   -0.1280    2.4300 c3        1 1QX     -0.157000
      3 C10         2.7070    0.3330    2.3460 c3        1 1QX     -0.164000
      4 C9          3.2750    0.1080    0.9610 c3        1 1QX     -0.139000
      5 C8          4.7220    0.5560    0.8840 c3        1 1QX     -0.253000
      6 C7          5.2620    0.4820   -0.4590 c1        1 1QX     -0.051000
      7 C6          7.7670   -0.2310    2.6320 c3        1 1QX     -0.210000
      8 C5          9.1720   -0.1480    3.1700 c3        1 1QX     -0.160000
      9 C4          9.2040   -0.3240    4.6740 c3        1 1QX     -0.156000
     10 C3         10.6130   -0.2160    5.2140 c3        1 1QX     -0.158000
     11 C2         10.6420   -0.3890    6.7170 c3        1 1QX     -0.162000
     12 C1         12.0600   -0.2600    7.2490 c3        1 1QX      0.019000
     13 O1         12.0530   -0.4220    8.6350 os        1 1QX     -0.748000
     14 P1         13.5990   -0.2790    9.2530 p5        1 1QX      1.976000
     15 O2         14.3710   -1.4090    8.6900 o         1 1QX     -0.860500
     16 C1H        13.2410   -0.5520   10.8920 c3        1 1QX     -0.812000
     17 C2H        14.4210   -0.0490   11.6670 c3        1 1QX     -0.170000
     18 C3H        14.1780   -0.1400   13.1670 c3        1 1QX     -0.069000
     19 N1         15.2700    0.2090   14.0580 n2        1 1QX     -0.299000
     20 N2         15.9840    1.2180   13.8850 n2        1 1QX      0.228000
     21 N3         16.7420    2.0650   13.9150 n1        1 1QX     -0.108000
     22 H1          0.7210    1.1810    4.0720 hc        1 1QX      0.072000
     23 H2         -0.3660   -0.2520    3.8460 hc        1 1QX      0.072000
     24 H3          1.2800   -0.4660    4.5730 hc        1 1QX      0.072000
     25 H4          0.6530    0.4250    1.6710 hc        1 1QX      0.077000
     26 H5          1.2090   -1.2180    2.1710 hc        1 1QX      0.077000
     27 H6          3.3230   -0.2210    3.1030 hc        1 1QX      0.079000
     28 H7          2.7670    1.4230    2.6070 hc        1 1QX      0.079000
     29 H8          3.2100   -0.9800    0.6980 hc        1 1QX      0.089000
     30 H9          2.6700    0.6690    0.2020 hc        1 1QX      0.089000
     31 H10         5.3350   -0.0110    1.6430 hc        1 1QX      0.118000
     32 H11         4.7920    1.6490    1.1780 hc        1 1QX      0.118000
     33 H12         7.1230    0.5580    3.0930 hc        1 1QX      0.063667
     34 H13         6.3640    0.5150   -0.5130 ha        1 1QX      0.032000
     35 H14         9.6200    0.8450    2.9010 hc        1 1QX      0.077500
     36 H15         7.7620   -0.0870    1.5240 hc        1 1QX      0.063667
     37 H16         9.8070   -0.9370    2.6880 hc        1 1QX      0.077500
     38 H17         7.3150   -1.2260    2.8610 hc        1 1QX      0.063667
     39 H18         8.5570    0.4560    5.1560 hc        1 1QX      0.074500
     40 H19         8.7730   -1.3230    4.9440 hc        1 1QX      0.074500
     41 H20        11.0450    0.7830    4.9430 hc        1 1QX      0.077000
     42 H21        11.2610   -0.9970    4.7340 hc        1 1QX      0.077000
     43 H22        10.2320   -1.3930    6.9980 hc        1 1QX      0.077000
     44 H23         9.9930    0.3830    7.2070 hc        1 1QX      0.077000
     45 H24        12.4840    0.7550    7.0060 h1        1 1QX      0.067500
     46 H25        12.7270   -1.0470    6.7970 h1        1 1QX      0.067500
     47 H27        13.0680   -1.6360   11.0850 hc        1 1QX      0.106500
     48 H28        12.3100   -0.0140   11.1880 hc        1 1QX      0.106500
     49 H29        15.3200   -0.6540   11.3750 hc        1 1QX      0.105500
     50 H30        14.6140    1.0150   11.3560 hc        1 1QX      0.105500
     51 H31        13.2660    0.4740   13.4220 h1        1 1QX      0.093000
     52 H32        13.9650   -1.2110   13.4480 h1        1 1QX      0.093000
     53 O3         13.9950    1.1330    9.0370 o         1 1QX     -0.860500
@<TRIPOS>BOND
     1    1    2 1   
     2    1   22 1   
     3    1   23 1   
     4    1   24 1   
     5    2    3 1   
     6    2   25 1   
     7    2   26 1   
     8    3    4 1   
     9    3   27 1   
    10    3   28 1   
    11    4    5 1   
    12    4   29 1   
    13    4   30 1   
    14    5    6 1   
    15    5   31 1   
    16    5   32 1   
    17    6   34 1   
    18    7    8 1   
    19    7   33 1   
    20    7   36 1   
    21    7   38 1   
    22    8    9 1   
    23    8   35 1   
    24    8   37 1   
    25    9   10 1   
    26    9   39 1   
    27    9   40 1   
    28   10   11 1   
    29   10   41 1   
    30   10   42 1   
    31   11   12 1   
    32   11   43 1   
    33   11   44 1   
    34   12   13 1   
    35   12   45 1   
    36   12   46 1   
    37   13   14 1   
    38   14   15 1   
    39   14   16 1   
    40   14   53 1   
    41   16   17 1   
    42   16   47 1   
    43   16   48 1   
    44   17   18 1   
    45   17   49 1   
    46   17   50 1   
    47   18   19 1   
    48   18   51 1   
    49   18   52 1   
    50   19   20 1   
    51   20   21 1   
@<TRIPOS>SUBSTRUCTURE
     1 1QX         1 TEMP              0 ****  ****    0 ROOT
