@<TRIPOS>MOLECULE
1QY
   59    58     1     0     0
SMALL
bcc


@<TRIPOS>ATOM
      1 C14         0.2580    0.0100   -0.1740 c3        1 1QY     -0.092100
      2 C13         1.7620    0.0280   -0.0900 c3        1 1QY     -0.080400
      3 C12         2.2390    0.0080    1.3470 c3        1 1QY     -0.079400
      4 C11         3.7510    0.0260    1.4270 c3        1 1QY     -0.079400
      5 C10         4.2260    0.0070    2.8640 c3        1 1QY     -0.078400
      6 C9          5.7380    0.0260    2.9430 c3        1 1QY     -0.079400
      7 C8          6.2130    0.0050    4.3800 c3        1 1QY     -0.078400
      8 C7          7.7250    0.0250    4.4600 c3        1 1QY     -0.079400
      9 C6          8.2010    0.0040    5.8970 c3        1 1QY     -0.078400
     10 C5          9.7120    0.0230    5.9770 c3        1 1QY     -0.079400
     11 C4         10.1890    0.0010    7.4140 c3        1 1QY     -0.077400
     12 C3         11.7000    0.0190    7.4950 c3        1 1QY     -0.079400
     13 C2         12.1760   -0.0040    8.9300 c3        1 1QY     -0.083400
     14 C1         13.6950    0.0120    8.9970 c3        1 1QY      0.169400
     15 O1         14.1030   -0.0100   10.3310 os        1 1QY     -0.586200
     16 P1         15.7700    0.0010   10.4390 p5        1 1QY      1.334600
     17 O2         16.2030    1.3240    9.9300 o         1 1QY     -0.860500
     18 C1H        15.9120   -0.0600   12.1320 c3        1 1QY     -0.324600
     19 C2H        17.3180    0.3550   12.4480 c3        1 1QY     -0.091400
     20 C3H        17.5450    0.4430   13.9500 c3        1 1QY      0.167800
     21 N1         18.8880    0.7290   14.4220 n2        1 1QY     -0.457200
     22 N2         19.6070    1.6120   13.9120 n1        1 1QY      0.229000
     23 N3         20.4170    2.3490   13.6020 n1        1 1QY     -0.108000
     24 H1         -0.1760    0.9010    0.3420 hc        1 1QY      0.031033
     25 H2         -0.1530   -0.9090    0.3100 hc        1 1QY      0.031033
     26 H3         -0.0720    0.0250   -1.2410 hc        1 1QY      0.031033
     27 H4          2.1810   -0.8600   -0.6340 hc        1 1QY      0.037700
     28 H5          2.1580    0.9450   -0.6020 hc        1 1QY      0.037700
     29 H6          1.8230    0.8960    1.8930 hc        1 1QY      0.038700
     30 H7          1.8470   -0.9090    1.8600 hc        1 1QY      0.038700
     31 H8          4.1430    0.9440    0.9130 hc        1 1QY      0.038700
     32 H9          4.1670   -0.8610    0.8810 hc        1 1QY      0.038700
     33 H10         3.8340   -0.9110    3.3770 hc        1 1QY      0.038700
     34 H11         3.8100    0.8940    3.4100 hc        1 1QY      0.038700
     35 H12         6.1300    0.9430    2.4310 hc        1 1QY      0.038700
     36 H13         6.1540   -0.8610    2.3970 hc        1 1QY      0.038700
     37 H14         5.8220   -0.9130    4.8930 hc        1 1QY      0.037700
     38 H15         5.7970    0.8920    4.9270 hc        1 1QY      0.037700
     39 H16         8.1170    0.9430    3.9480 hc        1 1QY      0.038700
     40 H17         8.1420   -0.8620    3.9130 hc        1 1QY      0.038700
     41 H18         7.7850    0.8900    6.4440 hc        1 1QY      0.036700
     42 H19         7.8090   -0.9140    6.4090 hc        1 1QY      0.036700
     43 H20        10.1050    0.9410    5.4650 hc        1 1QY      0.037700
     44 H21        10.1290   -0.8640    5.4300 hc        1 1QY      0.037700
     45 H22         9.7730    0.8880    7.9610 hc        1 1QY      0.034700
     46 H23         9.7970   -0.9170    7.9260 hc        1 1QY      0.034700
     47 H24        12.0940    0.9370    6.9830 hc        1 1QY      0.037700
     48 H25        12.1170   -0.8680    6.9470 hc        1 1QY      0.037700
     49 H26        11.7950   -0.9210    9.4490 hc        1 1QY      0.037700
     50 H27        11.7740    0.8820    9.4850 hc        1 1QY      0.037700
     51 H28        14.1260   -0.8870    8.4720 h1        1 1QY      0.027700
     52 H29        14.1040    0.9430    8.5110 h1        1 1QY      0.027700
     53 H31        15.7040   -1.0870   12.5110 hc        1 1QY      0.067200
     54 H32        15.1760    0.6240   12.6160 hc        1 1QY      0.067200
     55 H33        17.5060    1.3490   11.9540 hc        1 1QY      0.066700
     56 H34        18.0190   -0.3900   11.9840 hc        1 1QY      0.066700
     57 H35        17.3270   -0.5580   14.4220 h1        1 1QY      0.053700
     58 H36        16.8210    1.1940   14.3810 h1        1 1QY      0.053700
     59 O3         16.2300   -1.2670    9.8300 o         1 1QY     -0.860500
@<TRIPOS>BOND
     1    1    2 1
     2    1   24 1
     3    1   25 1
     4    1   26 1
     5    2    3 1
     6    2   27 1
     7    2   28 1
     8    3    4 1
     9    3   29 1
    10    3   30 1
    11    4    5 1
    12    4   31 1
    13    4   32 1
    14    5    6 1
    15    5   33 1
    16    5   34 1
    17    6    7 1
    18    6   35 1
    19    6   36 1
    20    7    8 1
    21    7   37 1
    22    7   38 1
    23    8    9 1
    24    8   39 1
    25    8   40 1
    26    9   10 1
    27    9   41 1
    28    9   42 1
    29   10   11 1
    30   10   43 1
    31   10   44 1
    32   11   12 1
    33   11   45 1
    34   11   46 1
    35   12   13 1
    36   12   47 1
    37   12   48 1
    38   13   14 1
    39   13   49 1
    40   13   50 1
    41   14   15 1
    42   14   51 1
    43   14   52 1
    44   15   16 1
    45   16   17 1
    46   16   18 1
    47   16   59 1
    48   18   19 1
    49   18   53 1
    50   18   54 1
    51   19   20 1
    52   19   55 1
    53   19   56 1
    54   20   21 1
    55   20   57 1
    56   20   58 1
    57   21   22 1
    58   22   23 3
@<TRIPOS>SUBSTRUCTURE
     1 1QY         1 TEMP              0 ****  ****    0 ROOT
