@<TRIPOS>MOLECULE
molecule
   57    60     1     0     0
SMALL
bcc


@<TRIPOS>ATOM
      1 CAA          0.0000     0.0000     0.0000 c3         1 1QZ      -0.130100
      2 CAQ          1.5310     0.0000     0.0000 c3         1 1QZ      -0.106700
      3 C4           2.0330     0.0000     1.4210 ca         1 1QZ       0.588600
      4 N3           2.2510     1.1400     2.0550 nb         1 1QZ      -0.835000
      5 C2           2.6920     1.1550     3.3040 ca         1 1QZ       0.959900
      6 NAD          2.9060     2.3720     3.9250 nv         1 1QZ      -0.988500
      7 N1           2.9350     0.0390     3.9760 nb         1 1QZ      -0.878000
      8 C6           2.7420    -1.1470     3.4140 ca         1 1QZ       0.750200
      9 NAE          2.9950    -2.3100     4.1200 nv         1 1QZ      -0.999500
     10 C5           2.2680    -1.2030     2.0880 ca         1 1QZ      -0.334600
     11 CAF          2.0390    -2.4590     1.4400 cg         1 1QZ      -0.111000
     12 CAG          1.8420    -3.4800     0.8940 c1         1 1QZ      -0.177100
     13 CBF          1.7200    -4.9130     0.3030 c3         1 1QZ       0.100700
     14 CAC          2.5260    -4.9670    -0.6970 c3         1 1QZ      -0.100100
     15 CAZ          1.9820    -5.6650     1.4910 ca         1 1QZ      -0.052300
     16 CAP          1.0250    -6.6580     1.5850 ca         1 1QZ      -0.177000
     17 CAO          3.3580    -5.6690     1.9490 ca         1 1QZ      -0.147000
     18 CAX          3.2210    -6.1800     3.5000 ca         1 1QZ       0.174100
     19 OAU          4.1380    -6.1730     4.1610 os         1 1QZ      -0.213900
     20 CAN          2.2490    -7.2070     3.6170 ca         1 1QZ      -0.328000
     21 CAY          1.0190    -7.6580     2.7630 cp         1 1QZ       0.037000
     22 CBC          0.1040    -8.6410     2.8920 cp         1 1QZ      -0.085000
     23 CBE          0.6940    -9.9400     3.2840 ca         1 1QZ       0.001000
     24 CAL          1.7790   -10.3130     2.8950 ca         1 1QZ      -0.205300
     25 CAI          2.2500   -11.8240     3.4710 ca         1 1QZ       0.390200
     26 NAR          1.5790   -12.6470     4.2920 nb         1 1QZ      -0.656000
     27 CAM          0.2620   -12.4580     4.2490 ca         1 1QZ       0.430200
     28 CBD         -0.3480   -10.9720     3.7910 ca         1 1QZ      -0.147300
     29 CAK         -1.4000   -10.4920     4.5060 ca         1 1QZ      -0.127000
     30 CAH         -1.7350    -8.8950     4.0880 ca         1 1QZ      -0.094000
     31 CAJ         -1.1820    -8.3830     3.4550 ca         1 1QZ      -0.048000
     32 CAB          4.1350    -6.9030     5.3700 c3         1 1QZ       0.066700
     33 H1          -0.3360     0.1900    -1.0120 hc         1 1QZ       0.027700
     34 H2          -0.6570    -0.7060     0.4930 hc         1 1QZ       0.027700
     35 H3          -0.6450     0.8270     0.2720 hc         1 1QZ       0.027700
     36 H4           1.6910    -0.7770    -0.7380 hc         1 1QZ       0.065700
     37 H5           1.6040     0.8460    -0.6730 hc         1 1QZ       0.065700
     38 H6           2.8680     3.2800     3.5060 hn         1 1QZ       0.459800
     39 H7           2.7810     2.0880     4.8770 hn         1 1QZ       0.459800
     40 H8           3.5160    -2.0110     4.9210 hn         1 1QZ       0.468300
     41 H9           2.7610    -3.1870     3.6980 hn         1 1QZ       0.468300
     42 H10          0.6780    -4.9120     0.0040 hc         1 1QZ       0.066700
     43 H11          2.4280    -5.8280    -1.3480 hc         1 1QZ       0.045367
     44 H12          2.3140    -4.2340    -1.4660 hc         1 1QZ       0.045367
     45 H13          3.5500    -4.7280    -0.4360 hc         1 1QZ       0.045367
     46 H14          0.0600    -6.6450     1.0930 ha         1 1QZ       0.132000
     47 H15          3.9390    -4.7950     1.6790 ha         1 1QZ       0.142000
     48 H16          2.2270    -7.5940     4.6290 ha         1 1QZ       0.099000
     49 H17          2.5780    -9.6340     2.6260 ha         1 1QZ       0.167000
     50 H18          3.3060   -11.9990     3.3060 h4         1 1QZ       0.015100
     51 H19         -0.1720   -12.9770     5.0950 h4         1 1QZ       0.025100
     52 H20         -2.2550   -11.0240     4.9070 ha         1 1QZ       0.150000
     53 H21         -2.6630    -8.7250     4.6210 ha         1 1QZ       0.121000
     54 H22         -1.3230    -7.3280     3.2520 ha         1 1QZ       0.118000
     55 H23          4.0910    -7.9700     5.1870 h1         1 1QZ       0.068367
     56 H24          4.9160    -6.6970     6.0910 h1         1 1QZ       0.068367
     57 H25          3.5680    -6.2530     6.0260 h1         1 1QZ       0.068367
@<TRIPOS>BOND
     1     6     5 1
     2     4     5 ar
     3     4     3 ar
     4     5     7 ar
     5     1     2 1
     6     2     3 1
     7     3    10 ar
     8     7     8 ar
     9     8    10 ar
    10     8     9 1
    11    10    11 1
    12    11    12 3
    13    12    13 1
    14    30    29 ar
    15    30    31 ar
    16    29    28 ar
    17    31    22 ar
    18    28    27 ar
    19    28    23 ar
    20    22    21 1
    21    22    23 ar
    22    27    26 ar
    23    20    21 ar
    24    20    18 ar
    25    32    19 1
    26    21    16 ar
    27    16    15 ar
    28    23    24 ar
    29    18    19 1
    30    18    17 ar
    31    15    17 ar
    32    15    13 1
    33    13    14 1
    34    26    25 ar
    35    24    25 ar
    36     1    33 1
    37     1    34 1
    38     1    35 1
    39     2    36 1
    40     2    37 1
    41     6    38 1
    42     6    39 1
    43     9    40 1
    44     9    41 1
    45    13    42 1
    46    14    43 1
    47    14    44 1
    48    14    45 1
    49    16    46 1
    50    17    47 1
    51    20    48 1
    52    24    49 1
    53    25    50 1
    54    27    51 1
    55    29    52 1
    56    30    53 1
    57    31    54 1
    58    32    55 1
    59    32    56 1
    60    32    57 1
@<TRIPOS>SUBSTRUCTURE
     1 1QZ         1 TEMP              0 ****  ****    0 ROOT
