@<TRIPOS>MOLECULE
1QZ
   57    60     1     0     0
SMALL
bcc


@<TRIPOS>ATOM
      1 CAA         -1.2350    -0.9310    -0.0030 c3         1 1QZ      -0.088100
      2 CAQ          0.1560    -0.4420     0.3170 c3         1 1QZ      -0.139700
      3 C4           0.3650    -0.2830     1.8010 ca         1 1QZ       0.540600
      4 N3          -0.3490     0.6660     2.4370 nb         1 1QZ      -0.790000
      5 C2          -0.1490     0.7890     3.8080 ca         1 1QZ       0.913900
      6 NAD         -0.9680     1.6870     4.4960 nv         1 1QZ      -0.931500
      7 N1           0.7520     0.0580     4.5580 nb         1 1QZ      -0.830000
      8 C6           1.4810    -0.8860     3.8850 ca         1 1QZ       0.741200
      9 NAE          2.4420    -1.5950     4.5800 nv         1 1QZ      -0.953500
     10 C5           1.3000    -1.1130     2.4700 ca         1 1QZ      -0.335600
     11 CAF          2.0310    -2.1030     1.8090 cg         1 1QZ      -0.080000
     12 CAG          2.6580    -2.9580     1.2470 c1         1 1QZ      -0.156100
     13 CBF          3.4220    -3.9800     0.5820 c3         1 1QZ       0.070700
     14 CAC          2.6300    -5.2780     0.4780 c3         1 1QZ      -0.087100
     15 CAZ          3.8700    -3.5370    -0.7840 ca         1 1QZ      -0.044300
     16 CAP          5.2180    -3.6540    -1.1420 ca         1 1QZ      -0.146000
     17 CAO          2.9480    -3.0230    -1.6940 ca         1 1QZ      -0.139000
     18 CAX          3.3870    -2.6340    -2.9720 ca         1 1QZ       0.123100
     19 OAU          2.3930    -2.1410    -3.7980 os         1 1QZ      -0.326900
     20 CAN          4.7290    -2.7580    -3.3420 ca         1 1QZ      -0.193000
     21 CAY          5.6480    -3.2720    -2.4170 cp         1 1QZ      -0.009000
     22 CBC          7.0670    -3.3800    -2.7680 cp         1 1QZ      -0.035000
     23 CBE          7.4910    -4.1560    -3.8890 ca         1 1QZ       0.001000
     24 CAL          6.5990    -4.8970    -4.7140 ca         1 1QZ      -0.229300
     25 CAI          7.1050    -5.6230    -5.7770 ca         1 1QZ       0.380200
     26 NAR          8.4370    -5.6780    -6.0980 nb         1 1QZ      -0.663000
     27 CAM          9.2760    -4.9990    -5.3340 ca         1 1QZ       0.420200
     28 CBD          8.8760    -4.2130    -4.2000 ca         1 1QZ      -0.162300
     29 CAK          9.8140    -3.5150    -3.4020 ca         1 1QZ      -0.099000
     30 CAH          9.3850    -2.7860    -2.3190 ca         1 1QZ      -0.133000
     31 CAJ          8.0100    -2.7210    -2.0010 ca         1 1QZ      -0.101000
     32 CAB          2.8110    -1.6770    -5.0760 c3         1 1QZ       0.112700
     33 H1          -1.4400    -1.9030     0.5050 hc         1 1QZ       0.041033
     34 H2          -1.3360    -1.0800    -1.1060 hc         1 1QZ       0.041033
     35 H3          -2.0040    -0.1910     0.3260 hc         1 1QZ       0.041033
     36 H4           0.3340     0.5480    -0.1850 hc         1 1QZ       0.064700
     37 H5           0.9140    -1.1640    -0.0900 hc         1 1QZ       0.064700
     38 H6          -0.6770     1.9590     5.4050 hn         1 1QZ       0.429800
     39 H7          -1.4380     2.3730     3.9520 hn         1 1QZ       0.429800
     40 H8           2.8130    -2.4020     4.1410 hn         1 1QZ       0.434300
     41 H9           2.4570    -1.5530     5.5700 hn         1 1QZ       0.434300
     42 H10          4.3420    -4.1820     1.2130 hc         1 1QZ       0.066700
     43 H11          1.7220    -5.1320    -0.1550 hc         1 1QZ       0.043700
     44 H12          3.2650    -6.0720     0.0160 hc         1 1QZ       0.043700
     45 H13          2.3100    -5.6150     1.4920 hc         1 1QZ       0.043700
     46 H14          5.9480    -4.0520    -0.4210 ha         1 1QZ       0.138000
     47 H15          1.8870    -2.9130    -1.4240 ha         1 1QZ       0.156000
     48 H16          5.0780    -2.4520    -4.3380 ha         1 1QZ       0.146000
     49 H17          5.5220    -4.8900    -4.4930 ha         1 1QZ       0.153000
     50 H18          6.4460    -6.2130    -6.4390 h4         1 1QZ       0.023100
     51 H19         10.3480    -5.0540    -5.6000 h4         1 1QZ       0.022100
     52 H20         10.8810    -3.5700    -3.6630 ha         1 1QZ       0.137000
     53 H21         10.1030    -2.2420    -1.6870 ha         1 1QZ       0.138000
     54 H22          7.6910    -2.1280    -1.1290 ha         1 1QZ       0.142000
     55 H23          3.5540    -0.8500    -4.9740 h1         1 1QZ       0.045700
     56 H24          3.2390    -2.5150    -5.6780 h1         1 1QZ       0.045700
     57 H25          1.8630    -1.3030    -5.5390 h1         1 1QZ       0.045700
@<TRIPOS>BOND
     1     1     2 1   
     2     1    33 1   
     3     1    34 1   
     4     1    35 1   
     5     2     3 1   
     6     2    36 1   
     7     2    37 1   
     8     3     4 ar  
     9     3    10 ar  
    10     4     5 ar  
    11     5     6 1   
    12     5     7 ar  
    13     6    38 1   
    14     6    39 1   
    15     7     8 ar  
    16     8     9 1   
    17     8    10 ar  
    18     9    40 1   
    19     9    41 1   
    20    10    11 1   
    21    11    12 3   
    22    12    13 1   
    23    13    14 1   
    24    13    15 1   
    25    13    42 1   
    26    14    43 1   
    27    14    44 1   
    28    14    45 1   
    29    15    16 ar  
    30    15    17 ar  
    31    16    21 ar  
    32    16    46 1   
    33    17    18 ar  
    34    17    47 1   
    35    18    19 1   
    36    18    20 ar  
    37    19    32 1   
    38    20    21 ar  
    39    20    48 1   
    40    21    22 1   
    41    22    23 ar  
    42    22    31 ar  
    43    23    24 ar  
    44    23    28 ar  
    45    24    25 ar  
    46    24    49 1   
    47    25    26 ar  
    48    25    50 1   
    49    26    27 ar  
    50    27    28 ar  
    51    27    51 1   
    52    28    29 ar  
    53    29    30 ar  
    54    29    52 1   
    55    30    31 ar  
    56    30    53 1   
    57    31    54 1   
    58    32    55 1   
    59    32    56 1   
    60    32    57 1   
@<TRIPOS>SUBSTRUCTURE
     1 1QZ         1 TEMP              0 ****  ****    0 ROOT
