@<TRIPOS>MOLECULE
1QZ
   57    60     1     0     0
SMALL
bcc


@<TRIPOS>ATOM
      1 CAA          0.0000     0.0000     0.0000 c3         1 1QZ      -0.037100
      2 CAQ          1.5310     0.0000     0.0000 c3         1 1QZ      -0.045700
      3 C4           2.0330     0.0000     1.4210 ca         1 1QZ       0.548600
      4 N3           2.2510     1.1400     2.0550 nb         1 1QZ      -0.742000
      5 C2           2.6920     1.1550     3.3040 ca         1 1QZ       0.737900
      6 NAD          2.9060     2.3720     3.9250 nv         1 1QZ      -0.531500
      7 N1           2.9350     0.0390     3.9760 nb         1 1QZ      -0.763000
      8 C6           2.7420    -1.1470     3.4140 ca         1 1QZ       0.560200
      9 NAE          2.9950    -2.3100     4.1200 nv         1 1QZ      -0.543500
     10 C5           2.2680    -1.2030     2.0880 ca         1 1QZ      -0.315600
     11 CAF          2.0390    -2.4590     1.4400 cg         1 1QZ      -0.103000
     12 CAG          1.8420    -3.4800     0.8940 c1         1 1QZ      -0.193100
     13 CBF          1.7200    -4.9130     0.3030 c3         1 1QZ       0.157700
     14 CAC          2.5260    -4.9670    -0.6970 c3         1 1QZ      -0.020100
     15 CAZ          1.9820    -5.6650     1.4910 ca         1 1QZ      -0.064300
     16 CAP          1.0250    -6.6580     1.5850 ca         1 1QZ      -0.153000
     17 CAO          3.3580    -5.6690     1.9490 ca         1 1QZ      -0.132000
     18 CAX          3.2210    -6.1800     3.5000 ca         1 1QZ       0.186100
     19 OAU          4.1380    -6.1730     4.1610 os         1 1QZ      -0.178900
     20 CAN          2.2490    -7.2070     3.6170 ca         1 1QZ      -0.328000
     21 CAY          1.0190    -7.6580     2.7630 cp         1 1QZ       0.062000
     22 CBC          0.1040    -8.6410     2.8920 cp         1 1QZ      -0.073000
     23 CBE          0.6940    -9.9400     3.2840 ca         1 1QZ      -0.022000
     24 CAL          1.7790   -10.3130     2.8950 ca         1 1QZ      -0.171300
     25 CAI          2.2500   -11.8240     3.4710 ca         1 1QZ       0.412200
     26 NAR          1.5790   -12.6470     4.2920 nb         1 1QZ      -0.597000
     27 CAM          0.2620   -12.4580     4.2490 ca         1 1QZ       0.444200
     28 CBD         -0.3480   -10.9720     3.7910 ca         1 1QZ      -0.132300
     29 CAK         -1.4000   -10.4920     4.5060 ca         1 1QZ      -0.097000
     30 CAH         -1.7350    -8.8950     4.0880 ca         1 1QZ      -0.066000
     31 CAJ         -1.1820    -8.3830     3.4550 ca         1 1QZ      -0.030000
     32 CAB          4.1350    -6.9030     5.3700 c3         1 1QZ       0.168700
     33 H1          -0.3360     0.1900    -1.0120 hc         1 1QZ      -0.005967
     34 H2          -0.6570    -0.7060     0.4930 hc         1 1QZ      -0.005967
     35 H3          -0.6450     0.8270     0.2720 hc         1 1QZ      -0.005967
     36 H4           1.6910    -0.7770    -0.7380 hc         1 1QZ       0.028200
     37 H5           1.6040     0.8460    -0.6730 hc         1 1QZ       0.028200
     38 H6           2.8680     3.2800     3.5060 hn         1 1QZ       0.289800
     39 H7           2.7810     2.0880     4.8770 hn         1 1QZ       0.289800
     40 H8           3.5160    -2.0110     4.9210 hn         1 1QZ       0.302800
     41 H9           2.7610    -3.1870     3.6980 hn         1 1QZ       0.302800
     42 H10          0.6780    -4.9120     0.0040 hc         1 1QZ       0.034700
     43 H11          2.4280    -5.8280    -1.3480 hc         1 1QZ       0.016033
     44 H12          2.3140    -4.2340    -1.4660 hc         1 1QZ       0.016033
     45 H13          3.5500    -4.7280    -0.4360 hc         1 1QZ       0.016033
     46 H14          0.0600    -6.6450     1.0930 ha         1 1QZ       0.110000
     47 H15          3.9390    -4.7950     1.6790 ha         1 1QZ       0.113000
     48 H16          2.2270    -7.5940     4.6290 ha         1 1QZ       0.089000
     49 H17          2.5780    -9.6340     2.6260 ha         1 1QZ       0.140000
     50 H18          3.3060   -11.9990     3.3060 h4         1 1QZ      -0.036900
     51 H19         -0.1720   -12.9770     5.0950 h4         1 1QZ      -0.028900
     52 H20         -2.2550   -11.0240     4.9070 ha         1 1QZ       0.120000
     53 H21         -2.6630    -8.7250     4.6210 ha         1 1QZ       0.092000
     54 H22         -1.3230    -7.3280     3.2520 ha         1 1QZ       0.087000
     55 H23          4.0910    -7.9700     5.1870 h1         1 1QZ       0.024033
     56 H24          4.9160    -6.6970     6.0910 h1         1 1QZ       0.024033
     57 H25          3.5680    -6.2530     6.0260 h1         1 1QZ       0.024033
@<TRIPOS>BOND
     1     1     2 1   
     2     1    33 1   
     3     1    34 1   
     4     1    35 1   
     5     2     3 1   
     6     2    36 1   
     7     2    37 1   
     8     3     4 ar  
     9     3    10 ar  
    10     4     5 ar  
    11     5     6 1   
    12     5     7 ar  
    13     6    38 1   
    14     6    39 1   
    15     7     8 ar  
    16     8     9 1   
    17     8    10 ar  
    18     9    40 1   
    19     9    41 1   
    20    10    11 1   
    21    11    12 3   
    22    12    13 1   
    23    13    14 1   
    24    13    15 1   
    25    13    42 1   
    26    14    43 1   
    27    14    44 1   
    28    14    45 1   
    29    15    16 ar  
    30    15    17 ar  
    31    16    21 ar  
    32    16    46 1   
    33    17    18 ar  
    34    17    47 1   
    35    18    19 1   
    36    18    20 ar  
    37    19    32 1   
    38    20    21 ar  
    39    20    48 1   
    40    21    22 1   
    41    22    23 ar  
    42    22    31 ar  
    43    23    24 ar  
    44    23    28 ar  
    45    24    25 ar  
    46    24    49 1   
    47    25    26 ar  
    48    25    50 1   
    49    26    27 ar  
    50    27    28 ar  
    51    27    51 1   
    52    28    29 ar  
    53    29    30 ar  
    54    29    52 1   
    55    30    31 ar  
    56    30    53 1   
    57    31    54 1   
    58    32    55 1   
    59    32    56 1   
    60    32    57 1   
@<TRIPOS>SUBSTRUCTURE
     1 1QZ         1 TEMP              0 ****  ****    0 ROOT
