@<TRIPOS>MOLECULE
1R0
   54    57     1     0     0
SMALL
bcc


@<TRIPOS>ATOM
      1 CAA          2.1550    -1.9690     3.1760 c3         1 1R0      -0.087100
      2 CAP          2.2340    -1.2760     1.8380 c3         1 1R0      -0.138700
      3 C4           2.9310     0.0560     1.9420 ca         1 1R0       0.539600
      4 N3           4.2490     0.0530     2.2180 nb         1 1R0      -0.793000
      5 C2           4.8770     1.2930     2.2940 ca         1 1R0       0.917900
      6 NAC          6.2620     1.2980     2.4670 nv         1 1R0      -0.932500
      7 N1           4.2540     2.5190     2.1580 nb         1 1R0      -0.833000
      8 C6           2.9110     2.4960     1.8900 ca         1 1R0       0.749200
      9 NAD          2.2390     3.6940     1.7960 nv         1 1R0      -0.959500
     10 C5           2.1920     1.2500     1.7490 ca         1 1R0      -0.342600
     11 CAF          0.8290     1.2510     1.4430 cg         1 1R0      -0.082000
     12 CAE         -0.3410     1.2680     1.1750 c1         1 1R0      -0.160100
     13 CAQ         -1.7420     1.2790     0.8830 c3         1 1R0       0.050000
     14 CAW         -2.0870     2.0070    -0.3760 ca         1 1R0      -0.046300
     15 CAN         -3.2020     2.8460    -0.4060 ca         1 1R0      -0.152000
     16 CAM         -1.3160     1.8230    -1.5290 ca         1 1R0      -0.191000
     17 CAY         -1.6760     2.4870    -2.7050 ca         1 1R0       0.124100
     18 OAU         -0.9910     2.3840    -3.9010 os         1 1R0      -0.326900
     19 CAB          0.1390     1.5180    -3.9050 c3         1 1R0       0.112700
     20 CAO         -2.7970     3.3360    -2.7450 ca         1 1R0      -0.147000
     21 CAZ         -3.5570     3.5150    -1.5870 cp         1 1R0      -0.012000
     22 CBC         -4.7450     4.3730    -1.6010 cp         1 1R0      -0.035000
     23 CBE         -4.6610     5.7450    -1.9860 ca         1 1R0       0.002000
     24 CAK         -3.4440     6.3870    -2.3530 ca         1 1R0      -0.228300
     25 CAH         -3.4620     7.7230    -2.7070 ca         1 1R0       0.380200
     26 NAR         -4.5980     8.4900    -2.7290 nb         1 1R0      -0.663000
     27 CAL         -5.7340     7.9080    -2.3840 ca         1 1R0       0.420200
     28 CBD         -5.8450     6.5300    -1.9940 ca         1 1R0      -0.162300
     29 CAJ         -7.0830     5.9540    -1.6210 ca         1 1R0      -0.098000
     30 CAG         -7.1390     4.6340    -1.2420 ca         1 1R0      -0.134000
     31 CAI         -5.9680     3.8450    -1.2300 ca         1 1R0      -0.101000
     32 H1           3.1760    -2.1940     3.5690 hc         1 1R0       0.041033
     33 H2           1.6210    -1.3330     3.9220 hc         1 1R0       0.041033
     34 H3           1.5970    -2.9310     3.0680 hc         1 1R0       0.041033
     35 H4           2.7880    -1.9260     1.1080 hc         1 1R0       0.061700
     36 H5           1.1990    -1.1210     1.4310 hc         1 1R0       0.061700
     37 H6           6.6780     0.4590     2.7950 hn         1 1R0       0.430800
     38 H7           6.6810     2.1510     2.7540 hn         1 1R0       0.430800
     39 H8           2.7430     4.5460     1.7680 hn         1 1R0       0.440300
     40 H9           1.3100     3.6780     1.4520 hn         1 1R0       0.440300
     41 H10         -2.1060     0.2130     0.7880 hc         1 1R0       0.069200
     42 H11         -2.2950     1.7390     1.7530 hc         1 1R0       0.069200
     43 H12         -3.8080     2.9930     0.5000 ha         1 1R0       0.139000
     44 H13         -0.4370     1.1630    -1.4910 ha         1 1R0       0.149000
     45 H14         -0.1650     0.4710    -3.6630 h1         1 1R0       0.046033
     46 H15          0.9140     1.8780    -3.1850 h1         1 1R0       0.046033
     47 H16          0.5150     1.5880    -4.9570 h1         1 1R0       0.046033
     48 H17         -3.0630     3.8420    -3.6840 ha         1 1R0       0.158000
     49 H18         -2.5050     5.8150    -2.3480 ha         1 1R0       0.154000
     50 H19         -2.5400     8.2560    -2.9980 h4         1 1R0       0.023100
     51 H20         -6.6430     8.5370    -2.4030 h4         1 1R0       0.021100
     52 H21         -7.9890     6.5790    -1.6380 ha         1 1R0       0.137000
     53 H22         -8.0940     4.1740    -0.9470 ha         1 1R0       0.137000
     54 H23         -6.0390     2.7890    -0.9240 ha         1 1R0       0.140000
@<TRIPOS>BOND
     1     1     2 1   
     2     1    32 1   
     3     1    33 1   
     4     1    34 1   
     5     2     3 1   
     6     2    35 1   
     7     2    36 1   
     8     3     4 ar  
     9     3    10 ar  
    10     4     5 ar  
    11     5     6 1   
    12     5     7 ar  
    13     6    37 1   
    14     6    38 1   
    15     7     8 ar  
    16     8     9 1   
    17     8    10 ar  
    18     9    39 1   
    19     9    40 1   
    20    10    11 1   
    21    11    12 3   
    22    12    13 1   
    23    13    14 1   
    24    13    41 1   
    25    13    42 1   
    26    14    15 ar  
    27    14    16 ar  
    28    15    21 ar  
    29    15    43 1   
    30    16    17 ar  
    31    16    44 1   
    32    17    18 1   
    33    17    20 ar  
    34    18    19 1   
    35    19    45 1   
    36    19    46 1   
    37    19    47 1   
    38    20    21 ar  
    39    20    48 1   
    40    21    22 1   
    41    22    23 ar  
    42    22    31 ar  
    43    23    24 ar  
    44    23    28 ar  
    45    24    25 ar  
    46    24    49 1   
    47    25    26 ar  
    48    25    50 1   
    49    26    27 ar  
    50    27    28 ar  
    51    27    51 1   
    52    28    29 ar  
    53    29    30 ar  
    54    29    52 1   
    55    30    31 ar  
    56    30    53 1   
    57    31    54 1   
@<TRIPOS>SUBSTRUCTURE
     1 1R0         1 TEMP              0 ****  ****    0 ROOT
