@<TRIPOS>MOLECULE
molecule
   54    57     1     0     0
SMALL
bcc


@<TRIPOS>ATOM
      1 CAA          0.0000     0.0000     0.0000 c3         1 1R0      -0.112100
      2 CAP          1.5300     0.0000     0.0000 c3         1 1R0      -0.152700
      3 C4           2.0330     0.0000     1.4210 ca         1 1R0       0.558600
      4 N3           2.2500     1.1410     2.0540 nb         1 1R0      -0.830000
      5 C2           2.6920     1.1560     3.3040 ca         1 1R0       0.944900
      6 NAC          2.9050     2.3740     3.9250 nv         1 1R0      -1.001500
      7 N1           2.9340     0.0400     3.9760 nb         1 1R0      -0.878000
      8 C6           2.7410    -1.1470     3.4140 ca         1 1R0       0.784200
      9 NAD          2.9970    -2.3090     4.1190 nv         1 1R0      -0.987500
     10 C5           2.2680    -1.2030     2.0880 ca         1 1R0      -0.351600
     11 CAF          2.0400    -2.4590     1.4400 cg         1 1R0      -0.095000
     12 CAE          1.8450    -3.4970     0.9270 c1         1 1R0      -0.170100
     13 CAQ          1.8830    -4.8550     0.0850 c3         1 1R0       0.081000
     14 CAW          2.0050    -5.9240     0.9040 ca         1 1R0       0.007700
     15 CAN          2.9920    -6.6290     0.9840 ca         1 1R0      -0.158000
     16 CAM          1.0280    -6.7800     0.9820 ca         1 1R0      -0.165000
     17 CAY          1.0340    -8.1200     1.1780 ca         1 1R0       0.138100
     18 OAU         -0.1910    -8.8290     1.4310 os         1 1R0      -0.376900
     19 CAB         -1.2290    -8.2200     1.8670 c3         1 1R0       0.163700
     20 CAO          1.9230    -8.6840     1.7810 ca         1 1R0      -0.136000
     21 CAZ          3.3230    -7.6660     1.6700 cp         1 1R0      -0.030000
     22 CBC          4.6000    -8.6150     1.8020 cp         1 1R0      -0.024000
     23 CBE          5.1130    -9.3070     2.5650 ca         1 1R0       0.013000
     24 CAK          4.7480    -8.6910     3.9310 ca         1 1R0      -0.273300
     25 CAH          5.3330    -9.4420     5.3930 ca         1 1R0       0.398200
     26 NAR          6.0160   -10.4450     5.1330 nb         1 1R0      -0.658000
     27 CAL          6.2850   -10.9300     3.6430 ca         1 1R0       0.415200
     28 CBD          5.8440   -10.3660     2.5170 ca         1 1R0      -0.056300
     29 CAJ          5.5170   -11.0670     1.6150 ca         1 1R0      -0.092000
     30 CAG          4.6520   -10.8730     0.8420 ca         1 1R0      -0.162000
     31 CAI          4.7690    -8.9610     0.2340 ca         1 1R0      -0.194000
     32 H1          -0.4380     0.5720     0.8090 hc         1 1R0       0.057033
     33 H2          -0.1820    -0.0520    -1.0670 hc         1 1R0       0.057033
     34 H3          -0.0400    -0.9010     0.6000 hc         1 1R0       0.057033
     35 H4           1.8620    -0.7990    -0.6520 hc         1 1R0       0.057200
     36 H5           1.8810     0.9060    -0.4800 hc         1 1R0       0.057200
     37 H6           3.0260     3.2620     3.4800 hn         1 1R0       0.479300
     38 H7           3.0720     1.9270     4.8050 hn         1 1R0       0.479300
     39 H8           2.9550    -2.5050     5.1000 hn         1 1R0       0.442300
     40 H9           2.9380    -3.0680     3.4690 hn         1 1R0       0.442300
     41 H10          0.9580    -4.8650    -0.4790 hc         1 1R0       0.069700
     42 H11          2.6840    -4.7350    -0.6350 hc         1 1R0       0.069700
     43 H12          3.9650    -6.2930     0.6470 ha         1 1R0       0.111000
     44 H13          0.0670    -6.3560     0.7180 ha         1 1R0       0.123000
     45 H14         -0.9530    -7.4440     2.5700 h1         1 1R0       0.012367
     46 H15         -1.4680    -7.6260     0.9930 h1         1 1R0       0.012367
     47 H16         -2.0590    -8.8300     2.2050 h1         1 1R0       0.012367
     48 H17          2.0550    -9.7250     2.0500 ha         1 1R0       0.171000
     49 H18          3.8000    -8.2340     4.1850 ha         1 1R0       0.144000
     50 H19          4.6120    -9.0060     6.0740 h4         1 1R0       0.072100
     51 H20          7.0210   -11.7230     3.6960 h4         1 1R0       0.030100
     52 H21          5.7520   -12.0930     1.3560 ha         1 1R0       0.131000
     53 H22          4.2490   -11.1690    -0.1190 ha         1 1R0       0.169000
     54 H23          4.1330    -8.6740    -0.5940 ha         1 1R0       0.143000
@<TRIPOS>BOND
     1     6     5 1
     2     4     5 ar
     3     4     3 ar
     4     5     7 ar
     5     2     3 1
     6     2     1 1
     7     7     8 ar
     8     3    10 ar
     9     8    10 ar
    10     8     9 1
    11    10    11 1
    12    11    12 3
    13    12    13 1
    14    29    30 ar
    15    29    28 ar
    16    30    31 ar
    17    27    28 ar
    18    27    26 ar
    19    28    23 ar
    20    31    22 ar
    21    26    25 ar
    22    23    22 ar
    23    23    24 ar
    24    22    21 1
    25    25    24 ar
    26    21    20 ar
    27    21    15 ar
    28    20    17 ar
    29    15    14 ar
    30    18    17 1
    31    18    19 1
    32    17    16 ar
    33    14    16 ar
    34    14    13 1
    35     1    32 1
    36     1    33 1
    37     1    34 1
    38     2    35 1
    39     2    36 1
    40     6    37 1
    41     6    38 1
    42     9    39 1
    43     9    40 1
    44    13    41 1
    45    13    42 1
    46    15    43 1
    47    16    44 1
    48    19    45 1
    49    19    46 1
    50    19    47 1
    51    20    48 1
    52    24    49 1
    53    25    50 1
    54    27    51 1
    55    29    52 1
    56    30    53 1
    57    31    54 1
@<TRIPOS>SUBSTRUCTURE
     1 1R0         1 TEMP              0 ****  ****    0 ROOT
