@<TRIPOS>MOLECULE
1R0
   54    56     1     0     0
SMALL
bcc


@<TRIPOS>ATOM
      1 CAA          0.0000     0.0000     0.0000 c3         1 1R0      -0.146000
      2 CAP          1.5300     0.0000     0.0000 c3         1 1R0      -0.084000
      3 C4           2.0330     0.0000     1.4210 c2         1 1R0       0.095000
      4 N3           2.2500     1.1410     2.0540 n2         1 1R0      -0.210000
      5 C2           2.6920     1.1560     3.3040 c2         1 1R0       0.009000
      6 NAC          2.9050     2.3740     3.9250 nv         1 1R0       0.048000
      7 N1           2.9340     0.0400     3.9760 n2         1 1R0      -0.241000
      8 C6           2.7410    -1.1470     3.4140 c2         1 1R0       0.066000
      9 NAD          2.9970    -2.3090     4.1190 nv         1 1R0       0.086000
     10 C5           2.2680    -1.2030     2.0880 c2         1 1R0      -0.195000
     11 CAF          2.0400    -2.4590     1.4400 c1         1 1R0      -0.086000
     12 CAE          1.8450    -3.4970     0.9270 c1         1 1R0      -0.215000
     13 CAQ          1.8830    -4.8550     0.0850 c3         1 1R0       0.137000
     14 CAW          2.0050    -5.9240     0.9040 ca         1 1R0      -0.004000
     15 CAN          2.9920    -6.6290     0.9840 ca         1 1R0      -0.138000
     16 CAM          1.0280    -6.7800     0.9820 ca         1 1R0      -0.127000
     17 CAY          1.0340    -8.1200     1.1780 ca         1 1R0       0.073000
     18 OAU         -0.1910    -8.8290     1.4310 os         1 1R0      -0.234000
     19 CAB         -1.2290    -8.2200     1.8670 c3         1 1R0       0.084000
     20 CAO          1.9230    -8.6840     1.7810 ca         1 1R0      -0.121000
     21 CAZ          3.3230    -7.6660     1.6700 ca         1 1R0      -0.020000
     22 CBC          4.6000    -8.6150     1.8020 c2         1 1R0      -0.006000
     23 CBE          5.1130    -9.3070     2.5650 c2         1 1R0       0.013000
     24 CAK          4.7480    -8.6910     3.9310 c2         1 1R0      -0.186000
     25 CAH          5.3330    -9.4420     5.3930 c2         1 1R0      -0.061000
     26 NAR          6.0160   -10.4450     5.1330 n2         1 1R0      -0.056000
     27 CAL          6.2850   -10.9300     3.6430 c2         1 1R0      -0.032000
     28 CBD          5.8440   -10.3660     2.5170 c2         1 1R0       0.005000
     29 CAJ          5.5170   -11.0670     1.6150 c2         1 1R0      -0.061000
     30 CAG          4.6520   -10.8730     0.8420 c1         1 1R0      -0.153000
     31 CAI          4.7690    -8.9610     0.2340 c1         1 1R0      -0.163000
     32 H1          -0.4380     0.5720     0.8090 hc         1 1R0       0.063667
     33 H2          -0.1820    -0.0520    -1.0670 hc         1 1R0       0.063667
     34 H3          -0.0400    -0.9010     0.6000 hc         1 1R0       0.063667
     35 H4           1.8620    -0.7990    -0.6520 hc         1 1R0       0.062500
     36 H5           1.8810     0.9060    -0.4800 hc         1 1R0       0.062500
     37 H6           3.0260     3.2620     3.4800 hn         1 1R0       0.107000
     38 H7           3.0720     1.9270     4.8050 hn         1 1R0       0.107000
     39 H8           2.9550    -2.5050     5.1000 hn         1 1R0       0.070500
     40 H9           2.9380    -3.0680     3.4690 hn         1 1R0       0.070500
     41 H10          0.9580    -4.8650    -0.4790 hc         1 1R0       0.064500
     42 H11          2.6840    -4.7350    -0.6350 hc         1 1R0       0.064500
     43 H12          3.9650    -6.2930     0.6470 ha         1 1R0       0.086000
     44 H13          0.0670    -6.3560     0.7180 ha         1 1R0       0.103000
     45 H14         -0.9530    -7.4440     2.5700 h1         1 1R0       0.016333
     46 H15         -1.4680    -7.6260     0.9930 h1         1 1R0       0.016333
     47 H16         -2.0590    -8.8300     2.2050 h1         1 1R0       0.016333
     48 H17          2.0550    -9.7250     2.0500 ha         1 1R0       0.144000
     49 H18          3.8000    -8.2340     4.1850 ha         1 1R0       0.114000
     50 H19          4.6120    -9.0060     6.0740 h4         1 1R0       0.156000
     51 H20          7.0210   -11.7230     3.6960 h4         1 1R0       0.122000
     52 H21          5.7520   -12.0930     1.3560 ha         1 1R0       0.104000
     53 H22          4.2490   -11.1690    -0.1190 ha         1 1R0       0.138000
     54 H23          4.1330    -8.6740    -0.5940 ha         1 1R0       0.105000
@<TRIPOS>BOND
     1     1     2 1   
     2     1    32 1   
     3     1    33 1   
     4     1    34 1   
     5     2     3 1   
     6     2    35 1   
     7     2    36 1   
     8     3     4 1   
     9     3    10 1   
    10     4     5 1   
    11     5     6 1   
    12     5     7 1   
    13     6    37 1   
    14     6    38 1   
    15     7     8 1   
    16     8     9 1   
    17     8    10 1   
    18     9    39 1   
    19     9    40 1   
    20    10    11 1   
    21    11    12 1   
    22    12    13 1   
    23    13    14 1   
    24    13    41 1   
    25    13    42 1   
    26    14    15 1   
    27    14    16 1   
    28    15    21 1   
    29    15    43 1   
    30    16    17 1   
    31    16    44 1   
    32    17    18 1   
    33    17    20 1   
    34    18    19 1   
    35    19    45 1   
    36    19    46 1   
    37    19    47 1   
    38    20    21 1   
    39    20    48 1   
    40    21    22 1   
    41    22    23 1   
    42    22    31 1   
    43    23    24 1   
    44    23    28 1   
    45    24    25 1   
    46    24    49 1   
    47    25    26 1   
    48    25    50 1   
    49    26    27 1   
    50    27    28 1   
    51    27    51 1   
    52    28    29 1   
    53    29    30 1   
    54    29    52 1   
    55    30    53 1   
    56    31    54 1   
@<TRIPOS>SUBSTRUCTURE
     1 1R0         1 TEMP              0 ****  ****    0 ROOT
