@<TRIPOS>MOLECULE
1R1
   65    64     1     0     0
SMALL
bcc


@<TRIPOS>ATOM
      1 C16         0.1500   -0.0220   -0.1320 c3        1 1R1     -0.092100
      2 C15         1.6550   -0.0120   -0.0630 c3        1 1R1     -0.080400
      3 C14         2.1460   -0.0090    1.3690 c3        1 1R1     -0.079400
      4 C13         3.6590    0.0010    1.4340 c3        1 1R1     -0.079400
      5 C12         4.1480    0.0040    2.8660 c3        1 1R1     -0.078400
      6 C11         5.6600    0.0140    2.9300 c3        1 1R1     -0.079400
      7 C10         6.1500    0.0140    4.3620 c3        1 1R1     -0.078400
      8 C9          7.6620    0.0250    4.4270 c3        1 1R1     -0.079400
      9 C8          8.1520    0.0220    5.8590 c3        1 1R1     -0.078400
     10 C7          9.6650    0.0310    5.9240 c3        1 1R1     -0.079400
     11 C6         10.1550    0.0240    7.3560 c3        1 1R1     -0.078400
     12 C5         11.6670    0.0320    7.4210 c3        1 1R1     -0.079400
     13 C4         12.1580    0.0210    8.8520 c3        1 1R1     -0.077400
     14 C3         13.6710    0.0280    8.9180 c3        1 1R1     -0.079400
     15 C2         14.1610    0.0120   10.3480 c3        1 1R1     -0.083400
     16 C1         15.6800    0.0180   10.4000 c3        1 1R1      0.169400
     17 O1         16.1020   -0.0020   11.7300 os        1 1R1     -0.586200
     18 P1         17.7700   -0.0030   11.8200 p5        1 1R1      1.334600
     19 O2         18.2080    1.3150   11.3040 o         1 1R1     -0.860500
     20 C1H        17.9290   -0.0610   13.5120 c3        1 1R1     -0.324600
     21 C2H        19.3410    0.3430   13.8120 c3        1 1R1     -0.091400
     22 C3H        19.5840    0.4330   15.3120 c3        1 1R1      0.167800
     23 N1         20.9340    0.7090   15.7690 n2        1 1R1     -0.457200
     24 N2         21.6560    1.5850   15.2500 n1        1 1R1      0.229000
     25 N3         22.4680    2.3140   14.9300 n1        1 1R1     -0.108000
     26 H1         -0.2620   -0.9300    0.3720 hc        1 1R1      0.031033
     27 H2         -0.1900   -0.0250   -1.1950 hc        1 1R1      0.031033
     28 H3         -0.2740    0.8790    0.3720 hc        1 1R1      0.031033
     29 H4          2.0630   -0.9120   -0.5950 hc        1 1R1      0.037700
     30 H5          2.0510    0.8930   -0.5950 hc        1 1R1      0.037700
     31 H6          1.7410    0.8900    1.9030 hc        1 1R1      0.038700
     32 H7          1.7530   -0.9140    1.9030 hc        1 1R1      0.038700
     33 H8          4.0510    0.9070    0.9010 hc        1 1R1      0.038700
     34 H9          4.0640   -0.8980    0.8990 hc        1 1R1      0.038700
     35 H10         3.7560   -0.9020    3.3990 hc        1 1R1      0.038700
     36 H11         3.7430    0.9030    3.4010 hc        1 1R1      0.038700
     37 H12         6.0660   -0.8840    2.3940 hc        1 1R1      0.038700
     38 H13         6.0530    0.9210    2.3980 hc        1 1R1      0.038700
     39 H14         5.7580   -0.8920    4.8940 hc        1 1R1      0.038700
     40 H15         5.7450    0.9130    4.8980 hc        1 1R1      0.038700
     41 H16         8.0680   -0.8730    3.8890 hc        1 1R1      0.038700
     42 H17         8.0550    0.9320    3.8970 hc        1 1R1      0.038700
     43 H18         7.7480    0.9190    6.3970 hc        1 1R1      0.037700
     44 H19         7.7590   -0.8860    6.3890 hc        1 1R1      0.037700
     45 H20        10.0580    0.9400    5.3960 hc        1 1R1      0.038700
     46 H21        10.0700   -0.8650    5.3840 hc        1 1R1      0.038700
     47 H22         9.7610   -0.8840    7.8840 hc        1 1R1      0.036700
     48 H23         9.7510    0.9210    7.8960 hc        1 1R1      0.036700
     49 H24        12.0720   -0.8630    6.8780 hc        1 1R1      0.037700
     50 H25        12.0610    0.9420    6.8960 hc        1 1R1      0.037700
     51 H26        11.7640   -0.8880    9.3780 hc        1 1R1      0.034700
     52 H27        11.7550    0.9170    9.3950 hc        1 1R1      0.034700
     53 H28        14.0660    0.9390    8.3950 hc        1 1R1      0.037700
     54 H29        14.0740   -0.8660    8.3730 hc        1 1R1      0.037700
     55 H30        13.7780   -0.8980   10.8790 hc        1 1R1      0.037700
     56 H31        13.7710    0.9060   10.9010 hc        1 1R1      0.037700
     57 H32        16.0910    0.9430    9.9050 h1        1 1R1      0.027700
     58 H33        16.0990   -0.8870    9.8740 h1        1 1R1      0.027700
     59 H35        17.7160   -1.0860   13.8960 hc        1 1R1      0.067200
     60 H36        17.2030    0.6300   14.0020 hc        1 1R1      0.067200
     61 H37        20.0310   -0.4080   13.3440 hc        1 1R1      0.066700
     62 H38        19.5320    1.3340   13.3150 hc        1 1R1      0.066700
     63 H39        19.3630   -0.5650   15.7890 h1        1 1R1      0.053700
     64 H40        18.8710    1.1920   15.7490 h1        1 1R1      0.053700
     65 O3         18.2140   -1.2760   11.2100 o         1 1R1     -0.860500
@<TRIPOS>BOND
     1    1    2 1
     2    1   26 1
     3    1   27 1
     4    1   28 1
     5    2    3 1
     6    2   29 1
     7    2   30 1
     8    3    4 1
     9    3   31 1
    10    3   32 1
    11    4    5 1
    12    4   33 1
    13    4   34 1
    14    5    6 1
    15    5   35 1
    16    5   36 1
    17    6    7 1
    18    6   37 1
    19    6   38 1
    20    7    8 1
    21    7   39 1
    22    7   40 1
    23    8    9 1
    24    8   41 1
    25    8   42 1
    26    9   10 1
    27    9   43 1
    28    9   44 1
    29   10   11 1
    30   10   45 1
    31   10   46 1
    32   11   12 1
    33   11   47 1
    34   11   48 1
    35   12   13 1
    36   12   49 1
    37   12   50 1
    38   13   14 1
    39   13   51 1
    40   13   52 1
    41   14   15 1
    42   14   53 1
    43   14   54 1
    44   15   16 1
    45   15   55 1
    46   15   56 1
    47   16   17 1
    48   16   57 1
    49   16   58 1
    50   17   18 1
    51   18   19 1
    52   18   20 1
    53   18   65 1
    54   20   21 1
    55   20   59 1
    56   20   60 1
    57   21   22 1
    58   21   61 1
    59   21   62 1
    60   22   23 1
    61   22   63 1
    62   22   64 1
    63   23   24 1
    64   24   25 3
@<TRIPOS>SUBSTRUCTURE
     1 1R1         1 TEMP              0 ****  ****    0 ROOT
