@<TRIPOS>MOLECULE
1R2
   28    29     1     0     0
SMALL
bcc


@<TRIPOS>ATOM
      1 OAA         -0.7260    -1.0590    -1.5560 o          1 1R2      -0.818800
      2 CAN          0.0850    -0.1810    -1.1540 c          1 1R2       0.910200
      3 OAC         -0.1390     0.6410    -0.2240 o          1 1R2      -0.818800
      4 CAR          1.4380    -0.0960    -1.8580 ca         1 1R2      -0.086600
      5 CAK          2.4290     0.7650    -1.3740 ca         1 1R2      -0.148000
      6 CAJ          1.6790    -0.8630    -2.9980 ca         1 1R2      -0.178000
      7 CAO          2.9100    -0.7600    -3.6620 ca         1 1R2       0.096100
      8 OAD          3.2000    -1.4970    -4.7960 oh         1 1R2      -0.520100
      9 CAI          3.9120     0.1100    -3.2130 ca         1 1R2      -0.177000
     10 CAQ          3.6430     0.8570    -2.0590 ca         1 1R2       0.060100
     11 OAM          4.7040     1.6250    -1.5520 os         1 1R2      -0.248200
     12 CAP          4.5500     2.9970    -1.6000 ca         1 1R2       0.137100
     13 CAL          5.6910     3.7220    -1.2130 ca         1 1R2      -0.112000
     14 CAS          5.6240     5.1210    -1.2220 ca         1 1R2      -0.151200
     15 NAT          6.8190     5.9070    -0.8220 no         1 1R2       0.312200
     16 OAE          6.7610     7.1100    -0.8320 o          1 1R2      -0.223000
     17 OAB          7.8250     5.3310    -0.4980 o          1 1R2      -0.223000
     18 CAH          4.4520     5.7960    -1.6020 ca         1 1R2      -0.118000
     19 CAF          3.3390     5.0500    -1.9790 ca         1 1R2      -0.108000
     20 CAG          3.3740     3.6580    -1.9840 ca         1 1R2      -0.141000
     21 H2           2.2270     1.3520    -0.4650 ha         1 1R2       0.169000
     22 H3           0.8870    -1.5430    -3.3520 ha         1 1R2       0.162000
     23 H4           2.4330    -2.0610    -4.9720 ho         1 1R2       0.414000
     24 H5           4.8710     0.1890    -3.7360 ha         1 1R2       0.144000
     25 H6           6.6060     3.1880    -0.9100 ha         1 1R2       0.179000
     26 H7           4.4170     6.8970    -1.5990 ha         1 1R2       0.160000
     27 H8           2.4130     5.5690    -2.2730 ha         1 1R2       0.146000
     28 H9           2.4820     3.0770    -2.2750 ha         1 1R2       0.182000
@<TRIPOS>BOND
     1     1     2 1   
     2     2     3 1   
     3     2     4 1   
     4     4     5 ar  
     5     4     6 ar  
     6     5    10 ar  
     7     5    21 1   
     8     6     7 ar  
     9     6    22 1   
    10     7     8 1   
    11     7     9 ar  
    12     8    23 1   
    13     9    10 ar  
    14     9    24 1   
    15    10    11 1   
    16    11    12 1   
    17    12    13 ar  
    18    12    20 ar  
    19    13    14 ar  
    20    13    25 1   
    21    14    15 1   
    22    14    18 ar  
    23    15    16 1   
    24    15    17 1   
    25    18    19 ar  
    26    18    26 1   
    27    19    20 ar  
    28    19    27 1   
    29    20    28 1   
@<TRIPOS>SUBSTRUCTURE
     1 1R2         1 TEMP              0 ****  ****    0 ROOT
