@<TRIPOS>MOLECULE
1R2
   28    29     1     0     0
SMALL
bcc


@<TRIPOS>ATOM
      1 OAA          0.0000     0.0000     0.0000 o          1 1R2      -0.873800
      2 CAN          1.2150     0.0000     0.0000 c          1 1R2       0.968200
      3 OAC          1.8890     0.0000     1.1670 o          1 1R2      -0.873800
      4 CAR          1.9540    -0.0070    -1.2800 ca         1 1R2      -0.070600
      5 CAK          1.2570    -0.0120    -2.4900 ca         1 1R2      -0.093000
      6 CAJ          3.3490    -0.0010    -1.2820 ca         1 1R2      -0.098000
      7 CAO          4.0380    -0.0070    -2.4850 ca         1 1R2       0.095100
      8 OAD          5.3970    -0.0010    -2.4880 oh         1 1R2      -0.510100
      9 CAI          3.3420    -0.0180    -3.6850 ca         1 1R2      -0.204000
     10 CAQ          1.9540    -0.0180    -3.6870 ca         1 1R2       0.055100
     11 OAM          1.2770    -0.0240    -4.8650 os         1 1R2      -0.206200
     12 CAP          1.3590    -1.1360    -5.6420 ca         1 1R2       0.148100
     13 CAL          0.7920    -1.1420    -6.9090 ca         1 1R2      -0.068000
     14 CAS          0.8760    -2.2730    -7.6970 ca         1 1R2      -0.423200
     15 NAT          0.2720    -2.2810    -9.0470 no         1 1R2       1.052200
     16 OAE          0.3450    -3.2780    -9.7430 o          1 1R2      -0.462000
     17 OAB         -0.3010    -1.2890    -9.4640 o          1 1R2      -0.462000
     18 CAH          1.5250    -3.4000    -7.2240 ca         1 1R2      -0.072000
     19 CAF          2.0920    -3.3950    -5.9630 ca         1 1R2      -0.081000
     20 CAG          2.0150    -2.2640    -5.1720 ca         1 1R2      -0.132000
     21 H2           0.1740    -0.0120    -2.4930 ha         1 1R2       0.137000
     22 H3           3.8920    -0.0550    -0.3470 ha         1 1R2       0.144000
     23 H4           5.7070     0.8880    -2.4540 ho         1 1R2       0.393000
     24 H5           3.8840    -0.0230    -4.6230 ha         1 1R2       0.109000
     25 H6           0.2400    -0.2780    -7.2600 ha         1 1R2       0.141000
     26 H7           1.5890    -4.2870    -7.8430 ha         1 1R2       0.126000
     27 H8           2.6010    -4.2780    -5.5960 ha         1 1R2       0.110000
     28 H9           2.4590    -2.2620    -4.1840 ha         1 1R2       0.150000
@<TRIPOS>BOND
     1     1     2 1   
     2     2     3 1   
     3     2     4 1   
     4     4     5 ar  
     5     4     6 ar  
     6     5    10 ar  
     7     5    21 1   
     8     6     7 ar  
     9     6    22 1   
    10     7     8 1   
    11     7     9 ar  
    12     8    23 1   
    13     9    10 ar  
    14     9    24 1   
    15    10    11 1   
    16    11    12 1   
    17    12    13 ar  
    18    12    20 ar  
    19    13    14 ar  
    20    13    25 1   
    21    14    15 1   
    22    14    18 ar  
    23    15    16 1   
    24    15    17 1   
    25    18    19 ar  
    26    18    26 1   
    27    19    20 ar  
    28    19    27 1   
    29    20    28 1   
@<TRIPOS>SUBSTRUCTURE
     1 1R2         1 TEMP              0 ****  ****    0 ROOT
