@<TRIPOS>MOLECULE
molecule
   28    29     1     0     0
SMALL
bcc


@<TRIPOS>ATOM
      1 OAA          0.0000     0.0000     0.0000 o          1 1R2      -0.824300
      2 CAN          1.2150     0.0000     0.0000 c          1 1R2       0.880200
      3 OAC          1.8890     0.0000     1.1670 o          1 1R2      -0.824300
      4 CAR          1.9540    -0.0070    -1.2800 ca         1 1R2      -0.081600
      5 CAK          1.2570    -0.0120    -2.4900 ca         1 1R2      -0.104000
      6 CAJ          3.3490    -0.0010    -1.2820 ca         1 1R2      -0.111000
      7 CAO          4.0380    -0.0070    -2.4850 ca         1 1R2       0.076100
      8 OAD          5.3970    -0.0010    -2.4880 oh         1 1R2      -0.532100
      9 CAI          3.3420    -0.0180    -3.6850 ca         1 1R2      -0.204000
     10 CAQ          1.9540    -0.0180    -3.6870 ca         1 1R2       0.051100
     11 OAM          1.2770    -0.0240    -4.8650 os         1 1R2      -0.234200
     12 CAP          1.3590    -1.1360    -5.6420 ca         1 1R2       0.150100
     13 CAL          0.7920    -1.1420    -6.9090 ca         1 1R2      -0.115000
     14 CAS          0.8760    -2.2730    -7.6970 ca         1 1R2      -0.130200
     15 NAT          0.2720    -2.2810    -9.0470 no         1 1R2       0.297200
     16 OAE          0.3450    -3.2780    -9.7430 o          1 1R2      -0.217500
     17 OAB         -0.3010    -1.2890    -9.4640 o          1 1R2      -0.217500
     18 CAH          1.5250    -3.4000    -7.2240 ca         1 1R2      -0.123000
     19 CAF          2.0920    -3.3950    -5.9630 ca         1 1R2      -0.103000
     20 CAG          2.0150    -2.2640    -5.1720 ca         1 1R2      -0.158000
     21 H2           0.1740    -0.0120    -2.4930 ha         1 1R2       0.166000
     22 H3           3.8920    -0.0550    -0.3470 ha         1 1R2       0.172000
     23 H4           5.7070     0.8880    -2.4540 ho         1 1R2       0.409000
     24 H5           3.8840    -0.0230    -4.6230 ha         1 1R2       0.129000
     25 H6           0.2400    -0.2780    -7.2600 ha         1 1R2       0.173000
     26 H7           1.5890    -4.2870    -7.8430 ha         1 1R2       0.155000
     27 H8           2.6010    -4.2780    -5.5960 ha         1 1R2       0.144000
     28 H9           2.4590    -2.2620    -4.1840 ha         1 1R2       0.176000
@<TRIPOS>BOND
     1    16    15 1
     2    18    19 ar
     3    18    14 ar
     4     1     2 1
     5    15    14 1
     6    15    17 1
     7    19    20 ar
     8    14    13 ar
     9     2     4 1
    10     2     3 1
    11     6     4 ar
    12     6     7 ar
    13    20    12 ar
    14     4     5 ar
    15     8     7 1
    16    13    12 ar
    17     7     9 ar
    18    12    11 1
    19     5    10 ar
    20     9    10 ar
    21    10    11 1
    22     5    21 1
    23     6    22 1
    24     8    23 1
    25     9    24 1
    26    13    25 1
    27    18    26 1
    28    19    27 1
    29    20    28 1
@<TRIPOS>SUBSTRUCTURE
     1 1R2         1 TEMP              0 ****  ****    0 ROOT
