@<TRIPOS>MOLECULE
molecule
   77    76     1     0     0
SMALL
bcc


@<TRIPOS>ATOM
      1 P02          0.0000     0.0000     0.0000 p5         1 1R3       0.322900
      2 O01          1.6100     0.0000     0.0000 o          1 1R3      -0.364167
      3 O04         -0.4930     0.0000     1.3960 o          1 1R3      -0.364167
      4 O05         -0.5360     1.3160    -0.7580 os         1 1R3      -0.516200
      5 C06         -0.3170     2.6400    -0.2680 c3         1 1R3       0.178400
      6 C09         -0.9560     3.6500    -1.2240 c3         1 1R3      -0.066000
      7 C10         -0.3250     3.5080    -2.6110 c3         1 1R3      -0.079100
      8 C14         -2.4590     3.3830    -1.3180 c3         1 1R3      -0.079100
      9 C18         -0.7210     5.0680    -0.6990 c3         1 1R3       0.081100
     10 O20         -1.3220     5.2040     0.5900 oh         1 1R3      -0.562800
     11 C22          0.7590     5.3260    -0.5940 c          1 1R3       0.640100
     12 O23          1.2660     5.5220     0.4910 o          1 1R3      -0.594100
     13 N24          1.5220     5.3400    -1.7060 ns         1 1R3      -0.604900
     14 C26          2.9750     5.4950    -1.5950 c3         1 1R3       0.116000
     15 C29          3.5970     5.4770    -2.9930 c3         1 1R3      -0.182400
     16 C32          5.0910     5.6360    -2.8810 c          1 1R3       0.663100
     17 O33          5.6080     5.7520    -1.7890 o          1 1R3      -0.614100
     18 N34          5.8530     5.6500    -3.9920 ns         1 1R3      -0.586900
     19 C36          7.3060     5.8040    -3.8810 c3         1 1R3       0.098000
     20 C39          7.9270     5.7870    -5.2800 c3         1 1R3      -0.051400
     21 C42          9.4450     5.9480    -5.1650 c3         1 1R3      -0.115600
     22 S45         10.1690     6.0410    -6.8210 s6         1 1R3      -0.175200
     23 O46         10.8180     6.1510    -8.3450 oh         1 1R3      -0.690200
     24 O47          9.7250     4.7040    -7.6940 oh         1 1R3      -0.690200
     25 C48         12.0000     6.1050    -6.6860 c3         1 1R3       0.089400
     26 C51         12.6240     5.9510    -8.0880 c3         1 1R3       0.057600
     27 C54         14.1150     5.6130    -7.9510 c3         1 1R3      -0.141400
     28 C57         14.7130     5.3590    -9.3450 c3         1 1R3      -0.074400
     29 C60         15.9160     4.4250    -9.2190 c3         1 1R3      -0.083400
     30 C63         16.5170     4.1810   -10.5990 c3         1 1R3      -0.083400
     31 C66         17.2190     2.8310   -10.6160 c3         1 1R3      -0.081400
     32 C69         17.8780     2.6190   -11.9720 c3         1 1R3      -0.085400
     33 C72         18.2710     1.1570   -12.1240 c3         1 1R3      -0.092100
     34 H061        -0.5590     2.6790     0.7880 h1         1 1R3       0.019200
     35 H062         0.7210     2.9120    -0.4110 h1         1 1R3       0.019200
     36 H101        -0.8000     4.2000    -3.2960 hc         1 1R3       0.031367
     37 H102         0.7340     3.7300    -2.5500 hc         1 1R3       0.031367
     38 H103        -0.4610     2.4950    -2.9680 hc         1 1R3       0.031367
     39 H141        -2.9190     4.1260    -1.9580 hc         1 1R3       0.031367
     40 H142        -2.6250     2.3960    -1.7340 hc         1 1R3       0.031367
     41 H143        -2.8980     3.4360    -0.3290 hc         1 1R3       0.031367
     42 H181        -1.1650     5.7830    -1.3810 h1         1 1R3       0.017700
     43 H201        -1.6450     6.0830     0.6950 ho         1 1R3       0.381000
     44 H241         1.1660     4.9610    -2.5610 hn         1 1R3       0.322500
     45 H261         3.2020     6.4350    -1.1070 h1         1 1R3       0.070700
     46 H262         3.3820     4.6770    -1.0130 h1         1 1R3       0.070700
     47 H291         3.5910     6.4790    -3.4040 hc         1 1R3       0.054200
     48 H292         3.0230     4.8200    -3.6360 hc         1 1R3       0.054200
     49 H341         5.4210     5.6870    -4.8940 hn         1 1R3       0.302500
     50 H361         7.7300     4.9150    -3.4310 h1         1 1R3       0.048700
     51 H362         7.5310     6.6650    -3.2640 h1         1 1R3       0.048700
     52 H391         7.4500     6.5400    -5.8960 hc         1 1R3       0.027200
     53 H392         7.7840     4.8110    -5.7270 hc         1 1R3       0.027200
     54 H421         9.6760     6.9460    -4.8100 h1         1 1R3       0.030700
     55 H422         9.8340     5.2180    -4.4650 h1         1 1R3       0.030700
     56 H461        10.7340     5.3210    -8.7830 ho         1 1R3       0.386500
     57 H471         9.1710     4.9660    -8.4100 ho         1 1R3       0.386500
     58 H481        12.2980     7.0560    -6.2610 h1         1 1R3       0.014200
     59 H482        12.3440     5.3010    -6.0470 h1         1 1R3       0.014200
     60 H511        12.1200     5.1530    -8.6220 hc         1 1R3       0.042700
     61 H512        12.5130     6.8780    -8.6370 hc         1 1R3       0.042700
     62 H541        14.2290     4.7240    -7.3420 hc         1 1R3       0.019700
     63 H542        14.6310     6.4410    -7.4820 hc         1 1R3       0.019700
     64 H571        13.9660     4.9020    -9.9820 hc         1 1R3       0.032200
     65 H572        15.0310     6.3000    -9.7780 hc         1 1R3       0.032200
     66 H601        16.6600     4.8790    -8.5760 hc         1 1R3       0.036200
     67 H602        15.5970     3.4820    -8.7930 hc         1 1R3       0.036200
     68 H631        17.2320     4.9630   -10.8240 hc         1 1R3       0.036200
     69 H632        15.7290     4.1880   -11.3420 hc         1 1R3       0.036200
     70 H661        16.4950     2.0450   -10.4390 hc         1 1R3       0.040200
     71 H662        17.9750     2.8070    -9.8390 hc         1 1R3       0.040200
     72 H691        18.7630     3.2400   -12.0450 hc         1 1R3       0.036200
     73 H692        17.1820     2.8890   -12.7580 hc         1 1R3       0.036200
     74 H721        18.8260     1.0260   -13.0450 hc         1 1R3       0.028367
     75 H722        17.3790     0.5440   -12.1490 hc         1 1R3       0.028367
     76 H723        18.8890     0.8600   -11.2850 hc         1 1R3       0.028367
     77 O1          -0.5040    -1.0510     0.9630 o          1 1R3      -0.364167
@<TRIPOS>BOND
     1     1     3 1   
     2     1     4 1   
     3     4     5 1   
     4     5     6 1   
     5     6     7 1   
     6     6     8 1   
     7     6     9 1   
     8     9    10 1   
     9     9    11 1   
    10    11    12 2   
    11    11    13 1   
    12    13    14 1   
    13    14    15 1   
    14    15    16 1   
    15    16    17 2   
    16    16    18 1   
    17    18    19 1   
    18    19    20 1   
    19    20    21 1   
    20    21    22 1   
    21    22    23 1   
    22    22    24 1   
    23    22    25 1   
    24    25    26 1   
    25    26    27 1   
    26    27    28 1   
    27    28    29 1   
    28    29    30 1   
    29    30    31 1   
    30    31    32 1   
    31    32    33 1   
    32     1     2 1   
    33     5    34 1   
    34     5    35 1   
    35     7    36 1   
    36     7    37 1   
    37     7    38 1   
    38     8    39 1   
    39     8    40 1   
    40     8    41 1   
    41     9    42 1   
    42    10    43 1   
    43    13    44 1   
    44    14    45 1   
    45    14    46 1   
    46    15    47 1   
    47    15    48 1   
    48    18    49 1   
    49    19    50 1   
    50    19    51 1   
    51    20    52 1   
    52    20    53 1   
    53    21    54 1   
    54    21    55 1   
    55    23    56 1   
    56    24    57 1   
    57    25    58 1   
    58    25    59 1   
    59    26    60 1   
    60    26    61 1   
    61    27    62 1   
    62    27    63 1   
    63    28    64 1   
    64    28    65 1   
    65    29    66 1   
    66    29    67 1   
    67    30    68 1   
    68    30    69 1   
    69    31    70 1   
    70    31    71 1   
    71    32    72 1   
    72    32    73 1   
    73    33    74 1   
    74    33    75 1   
    75    33    76 1   
    76     1    77 1   
@<TRIPOS>SUBSTRUCTURE
     1 1R3         1 TEMP              0 ****  ****    0 ROOT
