@<TRIPOS>MOLECULE
1R4
   55    55     1     0     0
SMALL
bcc


@<TRIPOS>ATOM
      1 O01          3.3280     3.2370    -1.0070 o          1 1R4      -0.522100
      2 C02          2.6440     2.3030    -0.5670 c          1 1R4       0.631100
      3 C03          3.0670     1.5820     0.7390 c3         1 1R4       0.051500
      4 N04          3.9540     0.4350     0.3540 ny         1 1R4      -0.670800
      5 C05          3.2150    -0.8440     0.0400 c          1 1R4       0.632100
      6 C06          4.0810    -2.0290    -0.2980 c3         1 1R4      -0.124400
      7 C07          3.4020    -3.3290     0.0970 c3         1 1R4      -0.083400
      8 C08          3.6660    -3.6910     1.5570 c3         1 1R4      -0.045500
      9 C09          3.1710    -2.5630     2.5480 c          1 1R4       0.941600
     10 O10          2.4340    -2.9090     3.4960 o          1 1R4      -0.788300
     11 O11          3.5870    -1.3980     2.3060 o          1 1R4      -0.788300
     12 O13          1.9900    -0.8080     0.0220 o          1 1R4      -0.493100
     13 C14          3.7600     2.5730     1.6750 c3         1 1R4      -0.082300
     14 S15          5.0180     1.9140     2.7050 ss         1 1R4      -0.207200
     15 C16          4.2760     1.1280     4.0990 c3         1 1R4      -0.156300
     16 C17          3.1990     1.8950     4.8050 c          1 1R4       0.573700
     17 C18          1.8200     1.7750     4.2710 ca         1 1R4      -0.154600
     18 C19          1.3290     0.5670     3.7610 ca         1 1R4      -0.107500
     19 C20          0.0270     0.4930     3.2700 ca         1 1R4      -0.084000
     20 C21         -0.7830     1.6390     3.2880 ca         1 1R4      -0.157200
     21 N22         -2.1590     1.5690     2.7180 no         1 1R4       0.309200
     22 O23         -2.8980     2.5010     2.8710 o          1 1R4      -0.195500
     23 O24         -2.4740     0.5860     2.1030 o          1 1R4      -0.195500
     24 C25         -0.3150     2.8450     3.8320 ca         1 1R4      -0.084000
     25 C26          0.9870     2.9020     4.3230 ca         1 1R4      -0.107500
     26 O27          3.4490     2.5930     5.7910 o          1 1R4      -0.468100
     27 N28          1.5150     1.8200    -1.2210 ns         1 1R4      -0.514900
     28 C29          1.5470     1.7720    -2.6570 c3         1 1R4      -0.016000
     29 C30          2.5230     0.7290    -3.1880 c          1 1R4       0.624100
     30 O31          2.5690     0.4410    -4.5070 oh         1 1R4      -0.538100
     31 O32          3.3280     0.0820    -2.4980 o          1 1R4      -0.597000
     32 N01          3.0270    -4.9930     1.9360 nz         1 1R4      -0.833600
     33 H031         2.1720     1.1430     1.2840 hx         1 1R4       0.139700
     34 H041         4.5200     0.6850    -0.4670 hn         1 1R4       0.487800
     35 H062         5.0850    -1.9540     0.1970 hc         1 1R4       0.111200
     36 H061         4.2260    -2.0020    -1.4190 hc         1 1R4       0.111200
     37 H072         2.2960    -3.2420    -0.0870 hc         1 1R4       0.078700
     38 H071         3.8000    -4.1390    -0.5720 hc         1 1R4       0.078700
     39 H081         4.7770    -3.7980     1.7290 hx         1 1R4       0.107700
     40 H141         2.9580     3.0870     2.2660 h1         1 1R4       0.128700
     41 H142         4.2910     3.3650     1.0730 h1         1 1R4       0.128700
     42 H161         3.9080     0.1040     3.8260 h1         1 1R4       0.131200
     43 H162         5.1530     1.0020     4.7960 h1         1 1R4       0.131200
     44 H191         1.9480    -0.3530     3.7550 ha         1 1R4       0.181000
     45 H201        -0.3640    -0.4620     2.8780 ha         1 1R4       0.181500
     46 H251        -0.9720     3.7320     3.8780 ha         1 1R4       0.181500
     47 H261         1.3640     3.8350     4.7770 ha         1 1R4       0.181000
     48 H281         1.9420     0.9960    -4.9980 ho         1 1R4       0.451000
     49 H292         0.5110     1.5360    -3.0360 h1         1 1R4       0.117700
     50 H291         1.8650     2.7810    -3.0580 h1         1 1R4       0.117700
     51 H01          3.7060    -5.7520     1.9310 hn         1 1R4       0.461800
     52 H011         2.2580    -5.2150     1.3020 hn         1 1R4       0.461800
     53 H013         2.6370    -4.8730     2.8970 hn         1 1R4       0.461800
     54 H042         4.5850     0.2500     1.1790 hn         1 1R4       0.487800
     55 H282         1.0180     1.0740    -0.7770 hn         1 1R4       0.330500
@<TRIPOS>BOND
     1     1     2 2   
     2     2     3 1   
     3     2    27 1   
     4     3     4 1   
     5     3    13 1   
     6     3    33 1   
     7     4     5 1   
     8     4    34 1   
     9     4    54 1   
    10     5     6 1   
    11     5    12 2   
    12     6     7 1   
    13     6    35 1   
    14     6    36 1   
    15     7     8 1   
    16     7    37 1   
    17     7    38 1   
    18     8     9 1   
    19     8    32 1   
    20     8    39 1   
    21     9    10 1   
    22     9    11 1   
    23    13    14 1   
    24    13    40 1   
    25    13    41 1   
    26    14    15 1   
    27    15    16 1   
    28    15    42 1   
    29    15    43 1   
    30    16    17 1   
    31    16    26 2   
    32    17    18 ar  
    33    17    25 ar  
    34    18    19 ar  
    35    18    44 1   
    36    19    20 ar  
    37    19    45 1   
    38    20    21 1   
    39    20    24 ar  
    40    21    22 1   
    41    21    23 1   
    42    24    25 ar  
    43    24    46 1   
    44    25    47 1   
    45    27    28 1   
    46    27    55 1   
    47    28    29 1   
    48    28    49 1   
    49    28    50 1   
    50    29    30 1   
    51    29    31 2   
    52    30    48 1   
    53    32    51 1   
    54    32    52 1   
    55    32    53 1   
@<TRIPOS>SUBSTRUCTURE
     1 1R4         1 TEMP              0 ****  ****    0 ROOT
