@<TRIPOS>MOLECULE
molecule
   53    53     1     0     0
SMALL
bcc


@<TRIPOS>ATOM
      1 O01          0.0000     0.0000     0.0000 o          1 1R4      -0.636100
      2 C02          1.2130     0.0000     0.0000 c          1 1R4       0.632100
      3 C03          1.9660     0.0000     1.3050 c3         1 1R4       0.056700
      4 N04          1.0140     0.0010     2.4190 ns         1 1R4      -0.557900
      5 C05          0.4990     1.1640     2.8640 c          1 1R4       0.671100
      6 C06         -0.4800     1.1640     4.0090 c3         1 1R4      -0.177400
      7 C07         -0.9070     2.6020     4.3150 c3         1 1R4      -0.073400
      8 C08         -1.9020     2.6020     5.4770 c3         1 1R4      -0.023500
      9 C09         -2.2270     4.0240     5.8590 c          1 1R4       0.874600
     10 O10         -1.3790     4.7240     6.6280 o          1 1R4      -0.780800
     11 O11         -3.2530     4.5330     5.4730 o          1 1R4      -0.780800
     12 O13          0.8240     2.2100     2.3430 o          1 1R4      -0.584100
     13 C14          2.8450    -1.2490     1.3870 c3         1 1R4      -0.010300
     14 S15          3.7520    -1.2500     2.9580 ss         1 1R4      -0.284200
     15 C16          4.7200    -2.7800     2.8700 c3         1 1R4      -0.105300
     16 C17          5.5430    -2.9270     4.1250 c          1 1R4       0.583700
     17 C18          6.4190    -4.0970     4.2970 ca         1 1R4      -0.129600
     18 C19          7.1840    -4.2370     5.4600 ca         1 1R4      -0.089500
     19 C20          8.0040    -5.3350     5.6130 ca         1 1R4      -0.083500
     20 C21          8.0710    -6.2970     4.6210 ca         1 1R4      -0.135200
     21 N22          8.9540    -7.4730     4.7940 no         1 1R4       0.291200
     22 O23          9.0160    -8.3200     3.9210 o          1 1R4      -0.203500
     23 O24          9.6180    -7.5910     5.8080 o          1 1R4      -0.203500
     24 C25          7.3170    -6.1660     3.4670 ca         1 1R4      -0.083500
     25 C26          6.4890    -5.0760     3.3000 ca         1 1R4      -0.089500
     26 O27          5.4810    -2.0830     4.9920 o          1 1R4      -0.482100
     27 N28          1.8870    -0.0060    -1.1670 ns         1 1R4      -0.540900
     28 C29          1.1550    -0.0120    -2.4360 c3         1 1R4      -0.005000
     29 C30          2.1340    -0.0190    -3.5810 c          1 1R4       0.883600
     30 O31          1.6870    -0.0250    -4.8470 o          1 1R4      -0.841800
     31 O32          3.3220    -0.0180    -3.3600 o          1 1R4      -0.841800
     32 N01         -3.1310     1.9100     5.0700 nz         1 1R4      -0.791600
     33 H031         2.5890     0.8840     1.3630 h1         1 1R4       0.108700
     34 H041         0.7470    -0.8620     2.8490 hn         1 1R4       0.313500
     35 H062        -0.0120     0.7330     4.8850 hc         1 1R4       0.043700
     36 H061        -1.3510     0.5790     3.7400 hc         1 1R4       0.043700
     37 H072        -0.0360     3.1880     4.5850 hc         1 1R4       0.104200
     38 H071        -1.3750     3.0340     3.4390 hc         1 1R4       0.104200
     39 H081        -1.4650     2.0910     6.3270 hx         1 1R4       0.097700
     40 H141         2.2220    -2.1330     1.3300 h1         1 1R4       0.076200
     41 H142         3.5490    -1.2500     0.5640 h1         1 1R4       0.076200
     42 H161         5.3770    -2.7430     2.0090 h1         1 1R4       0.083200
     43 H162         4.0500    -3.6260     2.7760 h1         1 1R4       0.083200
     44 H191         7.1320    -3.4840     6.2380 ha         1 1R4       0.163500
     45 H201         8.5960    -5.4440     6.5130 ha         1 1R4       0.169500
     46 H251         7.3740    -6.9240     2.6960 ha         1 1R4       0.169500
     47 H261         5.9000    -4.9750     2.3970 ha         1 1R4       0.163500
     48 H281         2.8870     0.0260    -1.1670 hn         1 1R4       0.332500
     49 H292         0.5330     0.8720    -2.4990 h1         1 1R4       0.049200
     50 H291         0.5320    -0.8970    -2.4890 h1         1 1R4       0.049200
     51 H01         -3.8880     2.2020     5.6560 hn         1 1R4       0.437800
     52 H011        -3.3410     2.1360     4.1180 hn         1 1R4       0.437800
     53 H013        -3.0030     0.9220     5.1580 hn         1 1R4       0.437800
@<TRIPOS>BOND
     1    32     8 1   
     2     8     9 1   
     3     8     7 1   
     4    14    15 1   
     5    14    13 1   
     6     6     7 1   
     7     6     5 1   
     8    26    16 2   
     9    10     9 1   
    10     4     5 1   
    11     4     3 1   
    12     9    11 1   
    13     5    12 2   
    14    16    15 1   
    15    16    17 1   
    16    25    24 ar  
    17    25    17 ar  
    18    13     3 1   
    19    31    29 1   
    20    24    20 ar  
    21    17    18 ar  
    22     3     2 1   
    23    27     2 1   
    24    27    28 1   
    25    29    30 1   
    26    29    28 1   
    27     2     1 2   
    28    22    21 1   
    29    18    19 ar  
    30    20    21 1   
    31    20    19 ar  
    32    21    23 1   
    33     3    33 1   
    34     4    34 1   
    35     6    35 1   
    36     6    36 1   
    37     7    37 1   
    38     7    38 1   
    39     8    39 1   
    40    13    40 1   
    41    13    41 1   
    42    15    42 1   
    43    15    43 1   
    44    18    44 1   
    45    19    45 1   
    46    24    46 1   
    47    25    47 1   
    48    27    48 1   
    49    28    49 1   
    50    28    50 1   
    51    32    51 1   
    52    32    52 1   
    53    53    32 1   
@<TRIPOS>SUBSTRUCTURE
     1 1R4         1 TEMP              0 ****  ****    0 ROOT
