@<TRIPOS>MOLECULE
1R4
   53    53     1     0     0
SMALL
bcc


@<TRIPOS>ATOM
      1 O01          0.0000     0.0000     0.0000 o          1 1R4      -0.691100
      2 C02          1.2130     0.0000     0.0000 c          1 1R4       0.531100
      3 C03          1.9660     0.0000     1.3050 c3         1 1R4      -0.035300
      4 N04          1.0140     0.0010     2.4190 ns         1 1R4      -0.148900
      5 C05          0.4990     1.1640     2.8640 c          1 1R4       0.581100
      6 C06         -0.4800     1.1640     4.0090 c3         1 1R4      -0.118400
      7 C07         -0.9070     2.6020     4.3150 c3         1 1R4      -0.007400
      8 C08         -1.9020     2.6020     5.4770 c3         1 1R4      -0.207500
      9 C09         -2.2270     4.0240     5.8590 c          1 1R4       0.963600
     10 O10         -1.3790     4.7240     6.6280 o          1 1R4      -0.824800
     11 O11         -3.2530     4.5330     5.4730 o          1 1R4      -0.824800
     12 O13          0.8240     2.2100     2.3430 o          1 1R4      -0.625100
     13 C14          2.8450    -1.2490     1.3870 c3         1 1R4       0.065700
     14 S15          3.7520    -1.2500     2.9580 ss         1 1R4      -0.358200
     15 C16          4.7200    -2.7800     2.8700 c3         1 1R4      -0.026300
     16 C17          5.5430    -2.9270     4.1250 c          1 1R4       0.627700
     17 C18          6.4190    -4.0970     4.2970 ca         1 1R4      -0.120600
     18 C19          7.1840    -4.2370     5.4600 ca         1 1R4      -0.073000
     19 C20          8.0040    -5.3350     5.6130 ca         1 1R4      -0.024000
     20 C21          8.0710    -6.2970     4.6210 ca         1 1R4      -0.430200
     21 N22          8.9540    -7.4730     4.7940 no         1 1R4       1.045200
     22 O23          9.0160    -8.3200     3.9210 o          1 1R4      -0.448000
     23 O24          9.6180    -7.5910     5.8080 o          1 1R4      -0.448000
     24 C25          7.3170    -6.1660     3.4670 ca         1 1R4      -0.024000
     25 C26          6.4890    -5.0760     3.3000 ca         1 1R4      -0.073000
     26 O27          5.4810    -2.0830     4.9920 o          1 1R4      -0.505100
     27 N28          1.8870    -0.0060    -1.1670 ns         1 1R4      -0.127900
     28 C29          1.1550    -0.0120    -2.4360 c3         1 1R4      -0.077000
     29 C30          2.1340    -0.0190    -3.5810 c          1 1R4       0.971600
     30 O31          1.6870    -0.0250    -4.8470 o          1 1R4      -0.887300
     31 O32          3.3220    -0.0180    -3.3600 o          1 1R4      -0.887300
     32 N01         -3.1310     1.9100     5.0700 nz         1 1R4       0.079400
     33 H031         2.5890     0.8840     1.3630 h1         1 1R4       0.082700
     34 H041         0.7470    -0.8620     2.8490 hn         1 1R4       0.169500
     35 H062        -0.0120     0.7330     4.8850 hc         1 1R4       0.013200
     36 H061        -1.3510     0.5790     3.7400 hc         1 1R4       0.013200
     37 H072        -0.0360     3.1880     4.5850 hc         1 1R4       0.071700
     38 H071        -1.3750     3.0340     3.4390 hc         1 1R4       0.071700
     39 H081        -1.4650     2.0910     6.3270 hx         1 1R4       0.080700
     40 H141         2.2220    -2.1330     1.3300 h1         1 1R4       0.050200
     41 H142         3.5490    -1.2500     0.5640 h1         1 1R4       0.050200
     42 H161         5.3770    -2.7430     2.0090 h1         1 1R4       0.057200
     43 H162         4.0500    -3.6260     2.7760 h1         1 1R4       0.057200
     44 H191         7.1320    -3.4840     6.2380 ha         1 1R4       0.130000
     45 H201         8.5960    -5.4440     6.5130 ha         1 1R4       0.135500
     46 H251         7.3740    -6.9240     2.6960 ha         1 1R4       0.135500
     47 H261         5.9000    -4.9750     2.3970 ha         1 1R4       0.130000
     48 H281         2.8870     0.0260    -1.1670 hn         1 1R4       0.195500
     49 H292         0.5330     0.8720    -2.4990 h1         1 1R4       0.027200
     50 H291         0.5320    -0.8970    -2.4890 h1         1 1R4       0.027200
     51 H01         -3.8880     2.2020     5.6560 hn         1 1R4       0.210467
     52 H011        -3.3410     2.1360     4.1180 hn         1 1R4       0.210467
     53 H013        -3.0030     0.9220     5.1580 hn         1 1R4       0.210467
@<TRIPOS>BOND
     1     1     2 2   
     2     2     3 1   
     3     2    27 1   
     4     3     4 1   
     5     3    13 1   
     6     3    33 1   
     7     4     5 1   
     8     4    34 1   
     9     5     6 1   
    10     5    12 2   
    11     6     7 1   
    12     6    35 1   
    13     6    36 1   
    14     7     8 1   
    15     7    37 1   
    16     7    38 1   
    17     8     9 1   
    18     8    32 1   
    19     8    39 1   
    20     9    10 1   
    21     9    11 1   
    22    13    14 1   
    23    13    40 1   
    24    13    41 1   
    25    14    15 1   
    26    15    16 1   
    27    15    42 1   
    28    15    43 1   
    29    16    17 1   
    30    16    26 2   
    31    17    18 ar  
    32    17    25 ar  
    33    18    19 ar  
    34    18    44 1   
    35    19    20 ar  
    36    19    45 1   
    37    20    21 1   
    38    20    24 ar  
    39    21    22 1   
    40    21    23 1   
    41    24    25 ar  
    42    24    46 1   
    43    25    47 1   
    44    27    28 1   
    45    27    48 1   
    46    28    29 1   
    47    28    49 1   
    48    28    50 1   
    49    29    30 1   
    50    29    31 1   
    51    32    51 1   
    52    32    52 1   
    53    32    53 1   
@<TRIPOS>SUBSTRUCTURE
     1 1R4         1 TEMP              0 ****  ****    0 ROOT
