@<TRIPOS>MOLECULE
1R5
   29    31     1     0     0
SMALL
bcc


@<TRIPOS>ATOM
      1 F           -0.0470     0.0850     0.1320 f          1 1R5      -0.137900
      2 C10          1.3040     0.0170     0.0740 ca         1 1R5       0.131900
      3 C9           2.0550    -0.0540     1.2620 ca         1 1R5      -0.166000
      4 C8           3.4420    -0.1200     1.1920 ca         1 1R5      -0.091000
      5 C11          1.9540     0.0180    -1.1750 ca         1 1R5      -0.166000
      6 C12          3.3410    -0.0530    -1.2250 ca         1 1R5      -0.091000
      7 C7           4.0990    -0.1210    -0.0470 cp         1 1R5      -0.061000
      8 C6           5.5580    -0.1940    -0.1120 cp         1 1R5       0.005000
      9 C5           6.3350     0.5430     0.7760 ca         1 1R5      -0.164000
     10 C4           7.7480     0.4760     0.7150 ca         1 1R5       0.067600
     11 N            8.5330     1.2160     1.6010 ns         1 1R5      -0.427100
     12 C            9.9200     1.1760     1.5720 c          1 1R5       0.668700
     13 O           10.5930     1.8520     2.3790 o          1 1R5      -0.647500
     14 C13          6.1800    -1.0120    -1.0760 ca         1 1R5      -0.145000
     15 C14          7.5590    -1.0890    -1.1430 ca         1 1R5      -0.082000
     16 C3           8.3680    -0.3540    -0.2600 ca         1 1R5      -0.091800
     17 C2           9.8050    -0.4250    -0.3210 cc         1 1R5      -0.101200
     18 C1          10.5480     0.3040     0.5510 cd         1 1R5       0.021900
     19 O1          11.9170     0.2500     0.5070 oh         1 1R5      -0.485100
     20 H1           1.5400    -0.0570     2.2330 ha         1 1R5       0.152000
     21 H2           4.0290    -0.1830     2.1210 ha         1 1R5       0.142000
     22 H3           1.3590     0.0760    -2.0980 ha         1 1R5       0.152000
     23 H4           3.8500    -0.0470    -2.2010 ha         1 1R5       0.142000
     24 H5           5.8450     1.1880     1.5230 ha         1 1R5       0.142000
     25 H6           8.0840     1.7980     2.2750 hn         1 1R5       0.338500
     26 H7           5.5590    -1.5980    -1.7700 ha         1 1R5       0.142000
     27 H8           8.0430    -1.7330    -1.8950 ha         1 1R5       0.142000
     28 H9          10.2780    -1.0690    -1.0760 ha         1 1R5       0.161000
     29 H10         12.2600     0.8370     1.2060 ho         1 1R5       0.448000
@<TRIPOS>BOND
     1     1     2 1   
     2     2     3 ar  
     3     2     5 ar  
     4     3     4 ar  
     5     3    20 1   
     6     4     7 ar  
     7     4    21 1   
     8     5     6 ar  
     9     5    22 1   
    10     6     7 ar  
    11     6    23 1   
    12     7     8 1   
    13     8     9 ar  
    14     8    14 ar  
    15     9    10 ar  
    16     9    24 1   
    17    10    11 1   
    18    10    16 ar  
    19    11    12 1   
    20    11    25 1   
    21    12    13 2   
    22    12    18 1   
    23    14    15 ar  
    24    14    26 1   
    25    15    16 ar  
    26    15    27 1   
    27    16    17 1   
    28    17    18 2   
    29    17    28 1   
    30    18    19 1   
    31    19    29 1   
@<TRIPOS>SUBSTRUCTURE
     1 1R5         1 TEMP              0 ****  ****    0 ROOT
