@<TRIPOS>MOLECULE
1R5
   29    31     1     0     0
SMALL
bcc


@<TRIPOS>ATOM
      1 F            0.0000     0.0000     0.0000 f          1 1R5      -0.127900
      2 C10          1.3520     0.0000     0.0000 ca         1 1R5       0.109900
      3 C9           2.0430     0.0000     1.2010 ca         1 1R5      -0.129000
      4 C8           3.4220     0.0000     1.2060 ca         1 1R5      -0.069000
      5 C11          2.0420    -0.0070    -1.2020 ca         1 1R5      -0.129000
      6 C12          3.4220    -0.0070    -1.2060 ca         1 1R5      -0.069000
      7 C7           4.1210    -0.0010     0.0000 cp         1 1R5      -0.054000
      8 C6           5.6030     0.0000    -0.0000 cp         1 1R5       0.019000
      9 C5           6.2950     0.0050    -1.2060 ca         1 1R5      -0.153000
     10 C4           7.6840     0.0050    -1.2040 ca         1 1R5      -0.074400
     11 N            8.3820     0.0090    -2.3950 ns         1 1R5       0.040900
     12 C            9.7270     0.0090    -2.4120 c          1 1R5       0.577700
     13 O           10.3140     0.0130    -3.4800 o          1 1R5      -0.666500
     14 C13          6.2990     0.0010     1.2140 ca         1 1R5      -0.132000
     15 C14          7.6620     0.0010     1.2280 ca         1 1R5      -0.041000
     16 C3           8.3750     0.0010     0.0220 ca         1 1R5      -0.104800
     17 C2           9.8380     0.0020     0.0230 cc         1 1R5      -0.082200
     18 C1          10.4930     0.0050    -1.1680 cd         1 1R5       0.026900
     19 O1          11.8530     0.0040    -1.2020 oh         1 1R5      -0.465100
     20 H1           1.4990     0.0010     2.1380 ha         1 1R5       0.120500
     21 H2           3.9610     0.0020     2.1450 ha         1 1R5       0.115000
     22 H3           1.4980    -0.0120    -2.1380 ha         1 1R5       0.120500
     23 H4           3.9610    -0.0100    -2.1460 ha         1 1R5       0.115000
     24 H5           5.7540     0.1010    -2.1400 ha         1 1R5       0.122000
     25 H6           7.8780     0.0120    -3.2600 hn         1 1R5       0.177500
     26 H7           5.7510     0.0020     2.1490 ha         1 1R5       0.116000
     27 H8           8.1940     0.0020     2.1720 ha         1 1R5       0.109000
     28 H9          10.3890    -0.0010     0.9560 ha         1 1R5       0.122000
     29 H10         12.1710     0.8800    -1.0580 ho         1 1R5       0.403000
@<TRIPOS>BOND
     1     1     2 1   
     2     2     3 ar  
     3     2     5 ar  
     4     3     4 ar  
     5     3    20 1   
     6     4     7 ar  
     7     4    21 1   
     8     5     6 ar  
     9     5    22 1   
    10     6     7 ar  
    11     6    23 1   
    12     7     8 1   
    13     8     9 ar  
    14     8    14 ar  
    15     9    10 ar  
    16     9    24 1   
    17    10    11 1   
    18    10    16 ar  
    19    11    12 1   
    20    11    25 1   
    21    12    13 2   
    22    12    18 1   
    23    14    15 ar  
    24    14    26 1   
    25    15    16 ar  
    26    15    27 1   
    27    16    17 1   
    28    17    18 2   
    29    17    28 1   
    30    18    19 1   
    31    19    29 1   
@<TRIPOS>SUBSTRUCTURE
     1 1R5         1 TEMP              0 ****  ****    0 ROOT
