@<TRIPOS>MOLECULE
molecule
   64    68     1     0     0
SMALL
bcc


@<TRIPOS>ATOM
      1 C4           0.0000     0.0000     0.0000 ca         1 1R7      -0.032000
      2 C5           1.3820     0.0000     0.0000 ca         1 1R7      -0.134000
      3 C6           2.0730     0.0000     1.1970 ca         1 1R7      -0.075300
      4 C7           3.5800     0.0000     1.1970 c3         1 1R7       0.167300
      5 C13          7.2400     4.6210     1.1980 ca         1 1R7      -0.104000
      6 C15          7.9420     6.9310     1.1910 ca         1 1R7       0.395200
      7 C17          5.6460     6.5140     1.1990 ca         1 1R7       0.475200
      8 C24         -4.4320     1.8960     1.2040 c3         1 1R7      -0.058900
      9 C28         -2.3420     2.4410    -0.0460 c3         1 1R7      -0.058900
     10 C1           1.3820     0.0010     2.3950 ca         1 1R7      -0.134000
     11 C2          -0.0000     0.0000     2.3940 ca         1 1R7      -0.032000
     12 C3          -0.6910     0.0060     1.1970 ca         1 1R7      -0.285500
     13 N8           4.0690     1.3810     1.1980 ns         1 1R7      -0.584900
     14 C9           5.3930     1.6280     1.1980 c          1 1R7       0.779100
     15 O10          6.1830     0.7050     1.1980 o          1 1R7      -0.598100
     16 N11          5.8430     2.8980     1.1980 n          1 1R7      -0.157200
     17 C12          7.1590     3.2560     1.2020 cc         1 1R7      -0.076400
     18 C14          8.3020     5.6230     1.1970 ca         1 1R7      -0.196300
     19 N16          6.6710     7.3250     1.1860 nb         1 1R7      -0.697000
     20 C18          5.8430     5.1190     1.1980 ca         1 1R7      -0.220300
     21 C19          5.0450     4.0010     1.1980 cc         1 1R7      -0.134400
     22 S20         -2.4540     0.0050     1.1960 sy         1 1R7       1.195300
     23 O21         -2.8030    -0.5940    -0.0440 o          1 1R7      -0.614300
     24 O22         -2.8040    -0.6060     2.4300 o          1 1R7      -0.614300
     25 C23         -2.9070     1.7610     1.2040 c3         1 1R7      -0.189900
     26 C25         -4.8090     3.3790     1.1500 c3         1 1R7       0.170300
     27 N26         -4.2450     3.9830    -0.0640 n3         1 1R7      -0.724600
     28 C27         -2.7790     3.9070    -0.0650 c3         1 1R7       0.170300
     29 C29         -4.7010     5.3700    -0.2220 c3         1 1R7       0.173500
     30 C30         -4.1000     5.9670    -1.4970 c3         1 1R7      -0.116400
     31 C31         -4.6420     7.3850    -1.6940 c3         1 1R7       0.137900
     32 O32         -6.0700     7.3430    -1.7560 os         1 1R7      -0.418600
     33 C33         -6.6900     6.8390    -0.5710 c3         1 1R7       0.137900
     34 C34         -6.2300     5.3990    -0.3260 c3         1 1R7      -0.116400
     35 H1          -0.5420     0.0020    -0.9380 ha         1 1R7       0.156500
     36 H2           1.9240    -0.0050    -0.9380 ha         1 1R7       0.144000
     37 H3           3.9410    -0.5110     2.0810 h1         1 1R7       0.068700
     38 H4           3.9410    -0.5100     0.3120 h1         1 1R7       0.068700
     39 H6           4.6400     6.9170     1.1930 h4         1 1R7       0.017100
     40 H7          -4.8390     1.3890     0.3370 hc         1 1R7       0.063200
     41 H8          -4.8330     1.4560     2.1090 hc         1 1R7       0.063200
     42 H9          -1.2600     2.3870    -0.0280 hc         1 1R7       0.063200
     43 H10         -2.7200     1.9410    -0.9300 hc         1 1R7       0.063200
     44 H11          1.9230    -0.0010     3.3330 ha         1 1R7       0.144000
     45 H12         -0.5420     0.0030     3.3320 ha         1 1R7       0.156500
     46 H13          3.4180     2.1420     1.2000 hn         1 1R7       0.323500
     47 H14          8.0000     2.5740     1.2070 h4         1 1R7       0.198000
     48 H15          9.3450     5.3300     1.2010 ha         1 1R7       0.139000
     49 H16          3.9620     3.9980     1.1980 h4         1 1R7       0.169000
     50 H17         -2.5030     2.2400     2.0880 h1         1 1R7       0.099700
     51 H18         -4.4100     3.8830     2.0210 h1         1 1R7       0.039950
     52 H19         -5.8880     3.4750     1.1330 h1         1 1R7       0.039950
     53 H21         -2.3940     4.3850    -0.9580 h1         1 1R7       0.039950
     54 H22         -2.3920     4.4090     0.8140 h1         1 1R7       0.039950
     55 H23         -4.3880     5.9580     0.6330 h1         1 1R7       0.022700
     56 H24         -3.0210     6.0030    -1.4050 hc         1 1R7       0.059200
     57 H25         -4.3750     5.3540    -2.3470 hc         1 1R7       0.059200
     58 H26         -4.2540     7.7930    -2.6200 h1         1 1R7       0.047700
     59 H27         -4.3360     8.0060    -0.8620 h1         1 1R7       0.047700
     60 H28         -7.7660     6.8570    -0.6920 h1         1 1R7       0.047700
     61 H29         -6.4060     7.4550     0.2740 h1         1 1R7       0.047700
     62 H30         -6.6620     5.0340     0.5980 hc         1 1R7       0.059200
     63 H31         -6.5470     4.7740    -1.1520 hc         1 1R7       0.059200
     64 H5           8.7200     7.6840     1.1790 h4         1 1R7       0.020100
@<TRIPOS>BOND
     1    32    33 1
     2    32    31 1
     3    33    34 1
     4    31    30 1
     5    34    29 1
     6    30    29 1
     7    29    27 1
     8    27    26 1
     9    27    28 1
    10    26     8 1
    11    28     9 1
    12     8    25 1
    13     9    25 1
    14    25    22 1
    15    24    22 2
    16    22    23 2
    17    22    12 1
    18    11    12 ar
    19    11    10 ar
    20    12     1 ar
    21    10     3 ar
    22     1     2 ar
    23     3     2 ar
    24     3     4 1
    25     4    13 1
    26    15    14 2
    27    13    14 1
    28    14    16 1
    29    16    21 1
    30    16    17 1
    31    21    20 2
    32    17     5 2
    33    20     5 ar
    34    20     7 ar
    35     5    18 ar
    36     7    19 ar
    37    18     6 ar
    38    19     6 ar
    39     1    35 1
    40     2    36 1
    41     4    37 1
    42     4    38 1
    43     6    64 1
    44     7    39 1
    45     8    40 1
    46     8    41 1
    47     9    42 1
    48     9    43 1
    49    10    44 1
    50    11    45 1
    51    13    46 1
    52    17    47 1
    53    18    48 1
    54    21    49 1
    55    25    50 1
    56    26    51 1
    57    26    52 1
    58    28    53 1
    59    28    54 1
    60    29    55 1
    61    30    56 1
    62    30    57 1
    63    31    58 1
    64    31    59 1
    65    33    60 1
    66    33    61 1
    67    34    62 1
    68    34    63 1
@<TRIPOS>SUBSTRUCTURE
     1 1R7         1 TEMP              0 ****  ****    0 ROOT
