@<TRIPOS>MOLECULE
1R7
   64    68     1     0     0
SMALL
bcc


@<TRIPOS>ATOM
      1 C4           0.0000     0.0000     0.0000 ca         1 1R7       0.002500
      2 C5           1.3820     0.0000     0.0000 ca         1 1R7      -0.115000
      3 C6           2.0730     0.0000     1.1970 ca         1 1R7      -0.086300
      4 C7           3.5800     0.0000     1.1970 c3         1 1R7       0.114300
      5 C13          7.2400     4.6210     1.1980 ca         1 1R7      -0.097000
      6 C15          7.9420     6.9310     1.1910 ca         1 1R7       0.374200
      7 C17          5.6460     6.5140     1.1990 ca         1 1R7       0.452200
      8 C24         -4.4320     1.8960     1.2040 c3         1 1R7       0.000600
      9 C28         -2.3420     2.4410    -0.0460 c3         1 1R7       0.000600
     10 C1           1.3820     0.0010     2.3950 ca         1 1R7      -0.115000
     11 C2          -0.0000     0.0000     2.3940 ca         1 1R7       0.002500
     12 C3          -0.6910     0.0060     1.1970 ca         1 1R7      -0.144500
     13 N8           4.0690     1.3810     1.1980 ns         1 1R7      -0.191900
     14 C9           5.3930     1.6280     1.1980 c          1 1R7       0.535100
     15 O10          6.1830     0.7050     1.1980 o          1 1R7      -0.640100
     16 N11          5.8430     2.8980     1.1980 n          1 1R7       0.370800
     17 C12          7.1590     3.2560     1.2020 cc         1 1R7      -0.242400
     18 C14          8.3020     5.6230     1.1970 ca         1 1R7      -0.156300
     19 N16          6.6710     7.3250     1.1860 nb         1 1R7      -0.585000
     20 C18          5.8430     5.1190     1.1980 ca         1 1R7      -0.200300
     21 C19          5.0450     4.0010     1.1980 cc         1 1R7      -0.317400
     22 S20         -2.4540     0.0050     1.1960 sy         1 1R7       0.878300
     23 O21         -2.8030    -0.5940    -0.0440 o          1 1R7      -0.580800
     24 O22         -2.8040    -0.6060     2.4300 o          1 1R7      -0.580800
     25 C23         -2.9070     1.7610     1.2040 c3         1 1R7      -0.017900
     26 C25         -4.8090     3.3790     1.1500 c3         1 1R7       0.144800
     27 N26         -4.2450     3.9830    -0.0640 n3         1 1R7      -0.530600
     28 C27         -2.7790     3.9070    -0.0650 c3         1 1R7       0.144800
     29 C29         -4.7010     5.3700    -0.2220 c3         1 1R7       0.135500
     30 C30         -4.1000     5.9670    -1.4970 c3         1 1R7      -0.076400
     31 C31         -4.6420     7.3850    -1.6940 c3         1 1R7       0.218400
     32 O32         -6.0700     7.3430    -1.7560 os         1 1R7      -0.405600
     33 C33         -6.6900     6.8390    -0.5710 c3         1 1R7       0.218400
     34 C34         -6.2300     5.3990    -0.3260 c3         1 1R7      -0.076400
     35 H1          -0.5420     0.0020    -0.9380 ha         1 1R7       0.128000
     36 H2           1.9240    -0.0050    -0.9380 ha         1 1R7       0.115000
     37 H3           3.9410    -0.5110     2.0810 h1         1 1R7       0.036700
     38 H4           3.9410    -0.5100     0.3120 h1         1 1R7       0.036700
     39 H6           4.6400     6.9170     1.1930 h4         1 1R7      -0.027900
     40 H7          -4.8390     1.3890     0.3370 hc         1 1R7       0.034700
     41 H8          -4.8330     1.4560     2.1090 hc         1 1R7       0.034700
     42 H9          -1.2600     2.3870    -0.0280 hc         1 1R7       0.034700
     43 H10         -2.7200     1.9410    -0.9300 hc         1 1R7       0.034700
     44 H11          1.9230    -0.0010     3.3330 ha         1 1R7       0.115000
     45 H12         -0.5420     0.0030     3.3320 ha         1 1R7       0.128000
     46 H13          3.4180     2.1420     1.2000 hn         1 1R7       0.185500
     47 H14          8.0000     2.5740     1.2070 h4         1 1R7       0.170000
     48 H15          9.3450     5.3300     1.2010 ha         1 1R7       0.111000
     49 H16          3.9620     3.9980     1.1980 h4         1 1R7       0.149000
     50 H17         -2.5030     2.2400     2.0880 h1         1 1R7       0.071700
     51 H18         -4.4100     3.8830     2.0210 h1         1 1R7       0.015950
     52 H19         -5.8880     3.4750     1.1330 h1         1 1R7       0.015950
     53 H21         -2.3940     4.3850    -0.9580 h1         1 1R7       0.015950
     54 H22         -2.3920     4.4090     0.8140 h1         1 1R7       0.015950
     55 H23         -4.3880     5.9580     0.6330 h1         1 1R7       0.007700
     56 H24         -3.0210     6.0030    -1.4050 hc         1 1R7       0.033200
     57 H25         -4.3750     5.3540    -2.3470 hc         1 1R7       0.033200
     58 H26         -4.2540     7.7930    -2.6200 h1         1 1R7       0.007200
     59 H27         -4.3360     8.0060    -0.8620 h1         1 1R7       0.007200
     60 H28         -7.7660     6.8570    -0.6920 h1         1 1R7       0.007200
     61 H29         -6.4060     7.4550     0.2740 h1         1 1R7       0.007200
     62 H30         -6.6620     5.0340     0.5980 hc         1 1R7       0.033200
     63 H31         -6.5470     4.7740    -1.1520 hc         1 1R7       0.033200
     64 H5           8.7200     7.6840     1.1790 h4         1 1R7      -0.022900
@<TRIPOS>BOND
     1     1     2 ar  
     2     1    12 ar  
     3     1    35 1   
     4     2     3 ar  
     5     2    36 1   
     6     3     4 1   
     7     3    10 ar  
     8     4    13 1   
     9     4    37 1   
    10     4    38 1   
    11     5    17 2   
    12     5    18 ar  
    13     5    20 ar  
    14     6    18 ar  
    15     6    19 ar  
    16     6    64 1   
    17     7    19 ar  
    18     7    20 ar  
    19     7    39 1   
    20     8    25 1   
    21     8    26 1   
    22     8    40 1   
    23     8    41 1   
    24     9    25 1   
    25     9    28 1   
    26     9    42 1   
    27     9    43 1   
    28    10    11 ar  
    29    10    44 1   
    30    11    12 ar  
    31    11    45 1   
    32    12    22 1   
    33    13    14 1   
    34    13    46 1   
    35    14    15 2   
    36    14    16 1   
    37    16    17 1   
    38    16    21 1   
    39    17    47 1   
    40    18    48 1   
    41    20    21 2   
    42    21    49 1   
    43    22    23 2   
    44    22    24 2   
    45    22    25 1   
    46    25    50 1   
    47    26    27 1   
    48    26    51 1   
    49    26    52 1   
    50    27    28 1   
    51    27    29 1   
    52    28    53 1   
    53    28    54 1   
    54    29    30 1   
    55    29    34 1   
    56    29    55 1   
    57    30    31 1   
    58    30    56 1   
    59    30    57 1   
    60    31    32 1   
    61    31    58 1   
    62    31    59 1   
    63    32    33 1   
    64    33    34 1   
    65    33    60 1   
    66    33    61 1   
    67    34    62 1   
    68    34    63 1   
@<TRIPOS>SUBSTRUCTURE
     1 1R7         1 TEMP              0 ****  ****    0 ROOT
