@<TRIPOS>MOLECULE
1R7
   65    69     1     0     0
SMALL
bcc


@<TRIPOS>ATOM
      1 C4           1.1580     0.2870    -0.3740 ca         1 1R7      -0.014500
      2 C5           2.5150     0.5630    -0.2350 ca         1 1R7      -0.131500
      3 C6           3.0710     0.6860     1.0460 ca         1 1R7      -0.134300
      4 C7           4.5220     0.9970     1.1960 c3         1 1R7       0.167100
      5 C13          3.4590    -4.0090     1.0400 ca         1 1R7       0.003000
      6 C15          2.3960    -6.1520     1.0100 ca         1 1R7       0.426200
      7 C17          4.0610    -5.8530     2.6120 ca         1 1R7       0.469200
      8 C24         -2.0580     2.0160     1.7100 c3         1 1R7      -0.057400
      9 C28         -3.4490     1.0860    -0.1080 c3         1 1R7      -0.057400
     10 C1           2.2620     0.5520     2.1760 ca         1 1R7      -0.131500
     11 C2           0.9000     0.2790     2.0220 ca         1 1R7      -0.014500
     12 C3           0.3400     0.1340     0.7510 ca         1 1R7      -0.300500
     13 N8           5.4000    -0.1250     0.7150 ny         1 1R7      -0.661800
     14 C9           5.5960    -1.1920     1.7900 c          1 1R7       0.661100
     15 O10          6.4260    -0.8970     2.6530 o          1 1R7      -0.459100
     16 N11          4.8680    -2.3590     1.7070 n          1 1R7      -0.225200
     17 C12          3.8420    -2.6990     0.7820 cc         1 1R7      -0.176400
     18 C14          2.4950    -4.8920     0.4740 ca         1 1R7      -0.230300
     19 N16          3.1660    -6.6340     2.0640 nb         1 1R7      -0.637000
     20 C18          4.2830    -4.5000     2.1610 ca         1 1R7      -0.195300
     21 C19          5.1320    -3.4790     2.5490 cc         1 1R7      -0.028400
     22 S20         -1.3090    -0.3130     0.5640 sy         1 1R7       1.354300
     23 O21         -1.4040    -1.0080    -0.6470 o          1 1R7      -0.632300
     24 O22         -1.7110    -0.9520     1.7390 o          1 1R7      -0.632300
     25 C23         -2.0220     1.2350     0.4080 c3         1 1R7      -0.287900
     26 C25         -2.7720     3.3580     1.5400 c3         1 1R7       0.183800
     27 N26         -4.1050     3.2230     0.9830 n3         1 1R7      -0.736600
     28 C27         -4.1190     2.4490    -0.2500 c3         1 1R7       0.183800
     29 C29         -4.8520     4.4810     0.8400 c3         1 1R7       0.192500
     30 C30         -6.3600     4.2410     1.0490 c3         1 1R7      -0.114400
     31 C31         -7.1250     5.5380     0.8500 c3         1 1R7       0.124400
     32 O32         -6.6650     6.5670     1.7190 os         1 1R7      -0.406600
     33 C33         -5.2790     6.8360     1.5620 c3         1 1R7       0.124400
     34 C34         -4.4270     5.6000     1.8010 c3         1 1R7      -0.114400
     35 H1           0.7210     0.1680    -1.3840 ha         1 1R7       0.180500
     36 H2           3.1360     0.7050    -1.1320 ha         1 1R7       0.147000
     37 H3           4.7840     1.9060     0.5750 hx         1 1R7       0.121700
     38 H4           4.7910     1.2060     2.2730 hx         1 1R7       0.121700
     39 H7          -2.5830     1.4060     2.4940 hc         1 1R7       0.065950
     40 H8          -1.0120     2.2180     2.0620 hc         1 1R7       0.065950
     41 H9          -3.4400     0.5860    -1.1130 hc         1 1R7       0.065950
     42 H10         -4.0380     0.4480     0.6030 hc         1 1R7       0.065950
     43 H11          2.6840     0.6620     3.1880 ha         1 1R7       0.147000
     44 H12          0.2620     0.1520     2.9170 ha         1 1R7       0.180500
     45 H13          5.0070    -0.5250    -0.1460 hn         1 1R7       0.469800
     46 H14          3.4290    -1.9800     0.0740 h4         1 1R7       0.181000
     47 H15          1.8600    -4.5600    -0.3570 ha         1 1R7       0.164000
     48 H16          5.8960    -3.4150     3.3300 h4         1 1R7       0.214000
     49 H17         -1.4620     1.8570    -0.3470 h1         1 1R7       0.113700
     50 H18         -2.8660     3.8210     2.5630 h1         1 1R7       0.039200
     51 H19         -2.1160     4.0290     0.9100 h1         1 1R7       0.039200
     52 H21         -5.1960     2.2840    -0.5400 h1         1 1R7       0.039200
     53 H22         -3.6170     3.0050    -1.0980 h1         1 1R7       0.039200
     54 H23         -4.7140     4.8860    -0.2130 h1         1 1R7       0.025700
     55 H24         -6.5370     3.8530     2.0850 hc         1 1R7       0.057950
     56 H25         -6.7440     3.4790     0.3240 hc         1 1R7       0.057950
     57 H26         -8.2050     5.4120     1.1270 h1         1 1R7       0.051450
     58 H27         -7.0450     5.8850    -0.2150 h1         1 1R7       0.051450
     59 H28         -5.0660     7.6230     2.3340 h1         1 1R7       0.051450
     60 H29         -5.0900     7.2510     0.5360 h1         1 1R7       0.051450
     61 H30         -4.5560     5.2620     2.8620 hc         1 1R7       0.057950
     62 H31         -3.3530     5.8740     1.6420 hc         1 1R7       0.057950
     63 H5           1.6680    -6.8920     0.6240 h4         1 1R7       0.048100
     64 H82          6.3360     0.2540     0.5150 hn         1 1R7       0.469800
     65 H6           4.6600    -6.2580     3.4500 h4         1 1R7       0.046100
@<TRIPOS>BOND
     1     1     2 ar  
     2     1    12 ar  
     3     1    35 1   
     4     2     3 ar  
     5     2    36 1   
     6     3     4 1   
     7     3    10 ar  
     8     4    13 1   
     9     4    37 1   
    10     4    38 1   
    11     5    17 2   
    12     5    18 ar  
    13     5    20 ar  
    14     6    18 ar  
    15     6    19 ar  
    16     6    63 1   
    17     7    19 ar  
    18     7    20 ar  
    19     7    65 1   
    20     8    25 1   
    21     8    26 1   
    22     8    39 1   
    23     8    40 1   
    24     9    25 1   
    25     9    28 1   
    26     9    41 1   
    27     9    42 1   
    28    10    11 ar  
    29    10    43 1   
    30    11    12 ar  
    31    11    44 1   
    32    12    22 1   
    33    13    14 1   
    34    13    45 1   
    35    13    64 1   
    36    14    15 2   
    37    14    16 1   
    38    16    17 1   
    39    16    21 1   
    40    17    46 1   
    41    18    47 1   
    42    20    21 2   
    43    21    48 1   
    44    22    23 2   
    45    22    24 2   
    46    22    25 1   
    47    25    49 1   
    48    26    27 1   
    49    26    50 1   
    50    26    51 1   
    51    27    28 1   
    52    27    29 1   
    53    28    52 1   
    54    28    53 1   
    55    29    30 1   
    56    29    34 1   
    57    29    54 1   
    58    30    31 1   
    59    30    55 1   
    60    30    56 1   
    61    31    32 1   
    62    31    57 1   
    63    31    58 1   
    64    32    33 1   
    65    33    34 1   
    66    33    59 1   
    67    33    60 1   
    68    34    61 1   
    69    34    62 1   
@<TRIPOS>SUBSTRUCTURE
     1 1R7         1 TEMP              0 ****  ****    0 ROOT
