@<TRIPOS>MOLECULE
1R8
   80    84     1     0     0
SMALL
bcc


@<TRIPOS>ATOM
      1 C2          1.3130    0.3910    1.6480 cy        1 1R8     -0.087900
      2 C3          2.7160    0.8010    2.1390 cy        1 1R8     -0.084400
      3 C4          2.1240    2.0250    2.8670 cy        1 1R8     -0.087900
      4 C1          0.7050    1.6390    2.3520 cy        1 1R8      0.112800
      5 C12         0.0480    2.6720    1.4620 c3        1 1R8     -0.117400
      6 O13        -0.1130    1.3300    3.4810 os        1 1R8     -0.288900
      7 C15        -1.3870    0.9170    3.1550 ca        1 1R8      0.175100
      8 C16        -2.0340    0.0720    4.0780 ca        1 1R8     -0.132000
      9 C17        -3.3090   -0.3870    3.7920 ca        1 1R8     -0.051000
     10 C18        -3.9510   -0.0400    2.5840 ca        1 1R8     -0.073300
     11 C20        -5.2970   -0.6000    2.2790 c3        1 1R8     -0.048100
     12 C21        -6.3670   -0.0410    3.1850 c3        1 1R8     -0.094100
     13 C19        -3.3050    0.8010    1.6860 ca        1 1R8     -0.116000
     14 C14        -2.0290    1.3210    1.9760 ca        1 1R8     -0.260300
     15 C11        -1.3590    2.2480    1.0210 c3        1 1R8      0.227800
     16 N10        -2.2540    3.4820    0.8540 n4        1 1R8     -0.771000
     17 C9         -1.8970    4.2870   -0.3390 c3        1 1R8      0.104800
     18 C6         -2.7190    5.5940   -0.4520 c3        1 1R8      0.113100
     19 O8         -2.5990    6.2350    0.8000 oh        1 1R8     -0.597800
     20 C5         -2.1390    6.4330   -1.6250 c3        1 1R8      0.091500
     21 C22        -0.9190    7.2730   -1.1790 c3        1 1R8     -0.054100
     22 C23        -1.2120    8.7250   -1.0320 ca        1 1R8     -0.172300
     23 C24        -1.1220    9.5660   -2.1520 ca        1 1R8     -0.166000
     24 C28        -1.5400    9.2690    0.2130 ca        1 1R8     -0.139000
     25 C27        -1.8080   10.6340    0.3280 ca        1 1R8     -0.103000
     26 C26        -1.7620   11.4570   -0.7950 ca        1 1R8     -0.093000
     27 C25        -1.4180   10.9280   -2.0480 ca        1 1R8     -0.043300
     28 C29        -1.3440   11.8100   -3.2460 c3        1 1R8     -0.056100
     29 C30        -2.6500   11.8920   -4.0170 c3        1 1R8     -0.081400
     30 C33        -2.9700   10.6400   -4.8120 c3        1 1R8     -0.083400
     31 C34        -4.0770    9.8210   -4.1740 c3        1 1R8     -0.093400
     32 C35        -4.2120    8.4680   -4.8450 c3        1 1R8     -0.109400
     33 C36        -5.0200    7.4710   -4.0410 c3        1 1R8     -0.157400
     34 C31        -4.2020    6.5850   -3.1430 c         1 1R8      0.559100
     35 O32        -4.2670    5.3730   -3.0140 o         1 1R8     -0.432100
     36 N7         -3.1780    7.2970   -2.2780 n4        1 1R8     -0.689800
     37 H1          0.9490   -0.5690    2.0730 hc        1 1R8      0.073950
     38 H2          1.1910    0.3920    0.5450 hc        1 1R8      0.073950
     39 H3          3.4250    1.0580    1.3230 hc        1 1R8      0.075700
     40 H4          3.1880    0.0600    2.8200 hc        1 1R8      0.075700
     41 H5          2.4770    3.0080    2.4940 hc        1 1R8      0.073950
     42 H6          2.2060    1.9810    3.9750 hc        1 1R8      0.073950
     43 H7          0.0240    3.6380    2.0380 hc        1 1R8      0.074200
     44 H8          0.6910    2.8260    0.5550 hc        1 1R8      0.074200
     45 H9         -1.5100   -0.2160    5.0040 ha        1 1R8      0.182000
     46 H10        -3.8280   -1.0510    4.5050 ha        1 1R8      0.170000
     47 H11        -5.5670   -0.3930    1.2080 hc        1 1R8      0.062200
     48 H12        -5.2580   -1.7180    2.3960 hc        1 1R8      0.062200
     49 H13        -6.1270   -0.2470    4.2560 hc        1 1R8      0.045700
     50 H14        -7.3510   -0.5140    2.9470 hc        1 1R8      0.045700
     51 H15        -6.4660    1.0630    3.0530 hc        1 1R8      0.045700
     52 H16        -3.7890    1.0350    0.7250 ha        1 1R8      0.120000
     53 H17        -1.3120    1.7700   -0.0050 hx        1 1R8      0.103700
     54 H18        -3.2310    3.1670    0.7900 hn        1 1R8      0.461800
     55 H20        -2.0760    3.6650   -1.2620 hx        1 1R8      0.118200
     56 H21        -0.8000    4.5420   -0.2660 hx        1 1R8      0.118200
     57 H22        -3.8020    5.3390   -0.6480 h1        1 1R8      0.076700
     58 H23        -3.0210    7.1050    0.7510 ho        1 1R8      0.446000
     59 H24        -1.8030    5.7030   -2.4250 hx        1 1R8      0.116700
     60 H25        -0.1020    7.1310   -1.9390 hc        1 1R8      0.097200
     61 H26        -0.5460    6.8600   -0.2010 hc        1 1R8      0.097200
     62 H27        -0.7690    9.1650   -3.1170 ha        1 1R8      0.137000
     63 H28        -1.5440    8.6340    1.1140 ha        1 1R8      0.141000
     64 H29        -2.0430   11.0650    1.3160 ha        1 1R8      0.167000
     65 H30        -1.9750   12.5360   -0.6960 ha        1 1R8      0.170000
     66 H31        -0.5260   11.4510   -3.9290 hc        1 1R8      0.075700
     67 H32        -1.0620   12.8490   -2.9180 hc        1 1R8      0.075700
     68 H33        -2.5650   12.7570   -4.7310 hc        1 1R8      0.066200
     69 H34        -3.4890   12.1350   -3.3140 hc        1 1R8      0.066200
     70 H35        -3.2890   10.9270   -5.8490 hc        1 1R8      0.055200
     71 H36        -2.0470   10.0100   -4.9200 hc        1 1R8      0.055200
     72 H37        -5.0480   10.3790   -4.2610 hc        1 1R8      0.042700
     73 H38        -3.8730    9.7150   -3.0760 hc        1 1R8      0.042700
     74 H39        -4.7370    8.6180   -5.8320 hc        1 1R8      0.082700
     75 H40        -3.2030    8.0440   -5.0970 hc        1 1R8      0.082700
     76 H41        -5.5760    6.7770   -4.7390 hc        1 1R8      0.129200
     77 H42        -5.7900    8.0010   -3.4120 hc        1 1R8      0.129200
     78 H43        -3.6690    7.8400   -1.5580 hn        1 1R8      0.476800
     79 H102       -2.1710    4.0700    1.6970 hn        1 1R8      0.461800
     80 H72        -2.6820    7.9850   -2.8800 hn        1 1R8      0.476800
@<TRIPOS>BOND
     1    1    2 1
     2    1    4 1
     3    1   37 1
     4    1   38 1
     5    2    3 1
     6    2   39 1
     7    2   40 1
     8    3    4 1
     9    3   41 1
    10    3   42 1
    11    4    5 1
    12    4    6 1
    13    5   15 1
    14    5   43 1
    15    5   44 1
    16    6    7 1
    17    7    8 ar
    18    7   14 ar
    19    8    9 ar
    20    8   45 1
    21    9   10 ar
    22    9   46 1
    23   10   11 1
    24   10   13 ar
    25   11   12 1
    26   11   47 1
    27   11   48 1
    28   12   49 1
    29   12   50 1
    30   12   51 1
    31   13   14 ar
    32   13   52 1
    33   14   15 1
    34   15   16 1
    35   15   53 1
    36   16   17 1
    37   16   54 1
    38   16   79 1
    39   17   18 1
    40   17   55 1
    41   17   56 1
    42   18   19 1
    43   18   20 1
    44   18   57 1
    45   19   58 1
    46   20   21 1
    47   20   36 1
    48   20   59 1
    49   21   22 1
    50   21   60 1
    51   21   61 1
    52   22   23 ar
    53   22   24 ar
    54   23   27 ar
    55   23   62 1
    56   24   25 ar
    57   24   63 1
    58   25   26 ar
    59   25   64 1
    60   26   27 ar
    61   26   65 1
    62   27   28 1
    63   28   29 1
    64   28   66 1
    65   28   67 1
    66   29   30 1
    67   29   68 1
    68   29   69 1
    69   30   31 1
    70   30   70 1
    71   30   71 1
    72   31   32 1
    73   31   72 1
    74   31   73 1
    75   32   33 1
    76   32   74 1
    77   32   75 1
    78   33   34 1
    79   33   76 1
    80   33   77 1
    81   34   35 2
    82   34   36 1
    83   36   78 1
    84   36   80 1
@<TRIPOS>SUBSTRUCTURE
     1 1R8         1 TEMP              0 ****  ****    0 ROOT
