@<TRIPOS>MOLECULE
1R9
   47    50     1     0     0
SMALL
bcc


@<TRIPOS>ATOM
      1 C1          -0.1990     0.0790     0.1560 ca         1 1R9      -0.062300
      2 C2           1.2070     0.3000     0.0870 ca         1 1R9       0.091600
      3 C3           1.8560     0.8760     1.2040 ca         1 1R9      -0.084000
      4 C4           1.1320     1.1720     2.3610 ca         1 1R9      -0.181600
      5 C5          -0.2480     0.9440     2.4310 ca         1 1R9      -0.134000
      6 C6          -0.8950     0.4130     1.3220 ca         1 1R9      -0.097000
      7 C7          -0.9430    -0.4940    -0.9910 c3         1 1R9      -0.077800
      8 C8           1.8650     1.7700     3.4790 c          1 1R9       0.590700
      9 N9           1.5950     1.1180     4.8390 ny         1 1R9      -0.650800
     10 O10          2.6620     2.6920     3.4980 o          1 1R9      -0.403100
     11 C11          2.7700     0.3600     5.2980 cx         1 1R9      -0.000500
     12 C12          2.9030    -1.1250     5.0330 cx         1 1R9      -0.100900
     13 C13          2.6510    -0.6430     6.4280 cx         1 1R9      -0.100900
     14 C14          3.2860    -0.2920    -1.1470 c          1 1R9       0.739700
     15 C15          3.8120    -0.5760    -2.4810 cc         1 1R9      -0.367000
     16 C16          3.2890    -0.0810    -3.6880 cd         1 1R9       0.385200
     17 N17          3.9660    -0.4600    -4.8120 nd         1 1R9      -0.637000
     18 C18          5.0140    -1.2500    -4.4700 cc         1 1R9       0.442900
     19 S19          5.1630    -1.5070    -2.7890 ss         1 1R9       0.122700
     20 C20          5.9300    -1.8230    -5.4460 ca         1 1R9      -0.140500
     21 C21          5.7400    -1.5720    -6.8170 ca         1 1R9      -0.069000
     22 C22          6.6060    -2.1080    -7.7660 ca         1 1R9      -0.129000
     23 C23          7.6790    -2.9050    -7.3710 ca         1 1R9      -0.095000
     24 C24          7.8880    -3.1670    -6.0190 ca         1 1R9      -0.120000
     25 C25          7.0200    -2.6300    -5.0650 ca         1 1R9       0.016400
     26 N26          1.9110    -0.0250    -1.0740 ns         1 1R9      -0.474100
     27 O27          3.9910    -0.2950    -0.1200 o          1 1R9      -0.595100
     28 Cl1          7.3230    -2.9820    -3.4230 cl         1 1R9      -0.069400
     29 H1           2.9410     1.0930     1.1700 ha         1 1R9       0.194000
     30 H2          -0.8330     1.2120     3.3220 ha         1 1R9       0.133000
     31 H3          -1.9860     0.2500     1.3610 ha         1 1R9       0.162000
     32 H4          -2.0220    -0.6440    -0.7390 hc         1 1R9       0.066367
     33 H5          -0.8910     0.1930    -1.8750 hc         1 1R9       0.066367
     34 H6          -0.5160    -1.4870    -1.2840 hc         1 1R9       0.066367
     35 H7           0.7820     0.4960     4.7630 hn         1 1R9       0.454300
     36 H8           3.6790     1.0060     5.2370 hx         1 1R9       0.154700
     37 H9           2.1010    -1.6680     4.4980 hc         1 1R9       0.110450
     38 H10          3.9060    -1.5020     4.7500 hc         1 1R9       0.110450
     39 H11          1.6680    -0.8390     6.8950 hc         1 1R9       0.110450
     40 H12          3.4680    -0.6630     7.1760 hc         1 1R9       0.110450
     41 H13          2.4250     0.5850    -3.8030 h4         1 1R9       0.043100
     42 H14          4.8980    -0.9430    -7.1500 ha         1 1R9       0.166000
     43 H15          6.4390    -1.8990    -8.8350 ha         1 1R9       0.151000
     44 H16          8.3640    -3.3280    -8.1230 ha         1 1R9       0.151000
     45 H17          8.7360    -3.7950    -5.7020 ha         1 1R9       0.158000
     46 H18          1.3690    -0.1700    -1.8990 hn         1 1R9       0.336500
     47 H92          1.3970     1.8490     5.5330 hn         1 1R9       0.454300
@<TRIPOS>BOND
     1     1     2 ar  
     2     1     6 ar  
     3     1     7 1   
     4     2     3 ar  
     5     2    26 1   
     6     3     4 ar  
     7     3    29 1   
     8     4     5 ar  
     9     4     8 1   
    10     5     6 ar  
    11     5    30 1   
    12     6    31 1   
    13     7    32 1   
    14     7    33 1   
    15     7    34 1   
    16     8     9 1   
    17     8    10 2   
    18     9    11 1   
    19     9    35 1   
    20     9    47 1   
    21    11    12 1   
    22    11    13 1   
    23    11    36 1   
    24    12    13 1   
    25    12    37 1   
    26    12    38 1   
    27    13    39 1   
    28    13    40 1   
    29    14    15 1   
    30    14    26 1   
    31    14    27 2   
    32    15    16 2   
    33    15    19 1   
    34    16    17 1   
    35    16    41 1   
    36    17    18 2   
    37    18    19 1   
    38    18    20 1   
    39    20    21 ar  
    40    20    25 ar  
    41    21    22 ar  
    42    21    42 1   
    43    22    23 ar  
    44    22    43 1   
    45    23    24 ar  
    46    23    44 1   
    47    24    25 ar  
    48    24    45 1   
    49    25    28 1   
    50    26    46 1   
@<TRIPOS>SUBSTRUCTURE
     1 1R9         1 TEMP              0 ****  ****    0 ROOT
