@<TRIPOS>MOLECULE
1R9
   46    49     1     0     0
SMALL
bcc


@<TRIPOS>ATOM
      1 C1           0.0000     0.0000     0.0000 ca         1 1R9      -0.095300
      2 C2           1.3910     0.0000     0.0000 ca         1 1R9      -0.103400
      3 C3           2.0840     0.0000     1.2010 ca         1 1R9      -0.034000
      4 C4           1.3810     0.0010     2.4060 ca         1 1R9      -0.144600
      5 C5          -0.0150    -0.0000     2.3950 ca         1 1R9      -0.095000
      6 C6          -0.6950     0.0050     1.1940 ca         1 1R9      -0.094000
      7 C7          -0.7500     0.0000    -1.3070 c3         1 1R9       0.059200
      8 C8           2.1120     0.0000     3.6910 c          1 1R9       0.595700
      9 N9           1.4310     0.0000     4.8540 ns         1 1R9      -0.147900
     10 O10          3.3270    -0.0000     3.6990 o          1 1R9      -0.637100
     11 C11          2.1560    -0.0010     6.1270 cx         1 1R9      -0.042300
     12 C12          1.4360    -0.5720     7.3510 cx         1 1R9      -0.096400
     13 C13          1.6530     0.9380     7.2260 cx         1 1R9      -0.096400
     14 C14          3.2580     0.6650    -1.3140 c          1 1R9       0.628700
     15 C15          3.9410     0.7480    -2.6090 cc         1 1R9      -0.211000
     16 C16          5.1280     1.3840    -2.8550 cd         1 1R9       0.452200
     17 N17          5.5230     1.3110    -4.0980 nd         1 1R9      -0.578000
     18 C18          4.7600     0.6590    -4.9300 cc         1 1R9       0.534900
     19 S19          3.3850     0.0420    -4.1240 ss         1 1R9      -0.290300
     20 C20          5.0470     0.4750    -6.3670 ca         1 1R9      -0.140500
     21 C21          4.1580    -0.2370    -7.1740 ca         1 1R9      -0.076000
     22 C22          4.4310    -0.4040    -8.5160 ca         1 1R9      -0.106000
     23 C23          5.5840     0.1300    -9.0630 ca         1 1R9      -0.071000
     24 C24          6.4700     0.8360    -8.2700 ca         1 1R9      -0.107000
     25 C25          6.2070     1.0170    -6.9270 ca         1 1R9      -0.008600
     26 N26          2.0900     0.0000    -1.2110 ns         1 1R9      -0.031100
     27 O27          3.7450     1.1970    -0.3340 o          1 1R9      -0.616100
     28 Cl1          7.3160     1.9090    -5.9350 cl         1 1R9       0.035600
     29 H1           3.1670     0.0000     1.2030 ha         1 1R9       0.169000
     30 H2          -0.5640     0.0020     3.3290 ha         1 1R9       0.101000
     31 H3          -1.7790     0.0040     1.1880 ha         1 1R9       0.108000
     32 H4          -0.4080     0.8250    -1.9200 hc         1 1R9       0.010367
     33 H5          -1.8110     0.1090    -1.1150 hc         1 1R9       0.010367
     34 H6          -0.5720    -0.9340    -1.8260 hc         1 1R9       0.010367
     35 H7           0.4300    -0.0050     4.8470 hn         1 1R9       0.174500
     36 H8           3.2280    -0.1560     6.1190 h1         1 1R9       0.098700
     37 H9           0.4220    -0.9140     7.1790 hc         1 1R9       0.047700
     38 H10          2.0670    -1.0780     8.0710 hc         1 1R9       0.047700
     39 H11          0.7730     1.5180     6.9790 hc         1 1R9       0.047700
     40 H12          2.4180     1.3550     7.8710 hc         1 1R9       0.047700
     41 H13          5.6900     1.9020    -2.0870 h4         1 1R9       0.022100
     42 H14          3.2540    -0.6560    -6.7480 ha         1 1R9       0.114000
     43 H15          3.7410    -0.9570    -9.1430 ha         1 1R9       0.108000
     44 H16          5.7940    -0.0070   -10.1170 ha         1 1R9       0.107000
     45 H17          7.3700     1.2540    -8.7060 ha         1 1R9       0.118000
     46 H18          1.7470    -0.5320    -1.9860 hn         1 1R9       0.176500
@<TRIPOS>BOND
     1     1     2 ar  
     2     1     6 ar  
     3     1     7 1   
     4     2     3 ar  
     5     2    26 1   
     6     3     4 ar  
     7     3    29 1   
     8     4     5 ar  
     9     4     8 1   
    10     5     6 ar  
    11     5    30 1   
    12     6    31 1   
    13     7    32 1   
    14     7    33 1   
    15     7    34 1   
    16     8     9 1   
    17     8    10 2   
    18     9    11 1   
    19     9    35 1   
    20    11    12 1   
    21    11    13 1   
    22    11    36 1   
    23    12    13 1   
    24    12    37 1   
    25    12    38 1   
    26    13    39 1   
    27    13    40 1   
    28    14    15 1   
    29    14    26 1   
    30    14    27 2   
    31    15    16 2   
    32    15    19 1   
    33    16    17 1   
    34    16    41 1   
    35    17    18 2   
    36    18    19 1   
    37    18    20 1   
    38    20    21 ar  
    39    20    25 ar  
    40    21    22 ar  
    41    21    42 1   
    42    22    23 ar  
    43    22    43 1   
    44    23    24 ar  
    45    23    44 1   
    46    24    25 ar  
    47    24    45 1   
    48    25    28 1   
    49    26    46 1   
@<TRIPOS>SUBSTRUCTURE
     1 1R9         1 TEMP              0 ****  ****    0 ROOT
