@<TRIPOS>MOLECULE
molecule
   46    49     1     0     0
SMALL
bcc


@<TRIPOS>ATOM
      1 C1           0.0000     0.0000     0.0000 ca         1 1R9      -0.091300
      2 C2           1.3910     0.0000     0.0000 ca         1 1R9       0.044600
      3 C3           2.0840     0.0000     1.2010 ca         1 1R9      -0.063000
      4 C4           1.3810     0.0010     2.4060 ca         1 1R9      -0.136600
      5 C5          -0.0150    -0.0000     2.3950 ca         1 1R9      -0.119000
      6 C6          -0.6950     0.0050     1.1940 ca         1 1R9      -0.122000
      7 C7          -0.7500     0.0000    -1.3070 c3         1 1R9      -0.050800
      8 C8           2.1120     0.0000     3.6910 c          1 1R9       0.678700
      9 N9           1.4310     0.0000     4.8540 ns         1 1R9      -0.553900
     10 O10          3.3270    -0.0000     3.6990 o          1 1R9      -0.596100
     11 C11          2.1560    -0.0010     6.1270 cx         1 1R9       0.062700
     12 C12          1.4360    -0.5720     7.3510 cx         1 1R9      -0.158900
     13 C13          1.6530     0.9380     7.2260 cx         1 1R9      -0.158900
     14 C14          3.2580     0.6650    -1.3140 c          1 1R9       0.711700
     15 C15          3.9410     0.7480    -2.6090 cc         1 1R9      -0.237000
     16 C16          5.1280     1.3840    -2.8550 cd         1 1R9       0.453200
     17 N17          5.5230     1.3110    -4.0980 nd         1 1R9      -0.672000
     18 C18          4.7600     0.6590    -4.9300 cc         1 1R9       0.527900
     19 S19          3.3850     0.0420    -4.1240 ss         1 1R9      -0.188300
     20 C20          5.0470     0.4750    -6.3670 ca         1 1R9      -0.133500
     21 C21          4.1580    -0.2370    -7.1740 ca         1 1R9      -0.104000
     22 C22          4.4310    -0.4040    -8.5160 ca         1 1R9      -0.131000
     23 C23          5.5840     0.1300    -9.0630 ca         1 1R9      -0.102000
     24 C24          6.4700     0.8360    -8.2700 ca         1 1R9      -0.129000
     25 C25          6.2070     1.0170    -6.9270 ca         1 1R9       0.068400
     26 N26          2.0900     0.0000    -1.2110 ns         1 1R9      -0.473100
     27 O27          3.7450     1.1970    -0.3340 o          1 1R9      -0.574100
     28 Cl1          7.3160     1.9090    -5.9350 cl         1 1R9      -0.056400
     29 H1           3.1670     0.0000     1.2030 ha         1 1R9       0.193000
     30 H2          -0.5640     0.0020     3.3290 ha         1 1R9       0.124000
     31 H3          -1.7790     0.0040     1.1880 ha         1 1R9       0.135000
     32 H4          -0.4080     0.8250    -1.9200 hc         1 1R9       0.045367
     33 H5          -1.8110     0.1090    -1.1150 hc         1 1R9       0.045367
     34 H6          -0.5720    -0.9340    -1.8260 hc         1 1R9       0.045367
     35 H7           0.4300    -0.0050     4.8470 hn         1 1R9       0.316500
     36 H8           3.2280    -0.1560     6.1190 h1         1 1R9       0.125700
     37 H9           0.4220    -0.9140     7.1790 hc         1 1R9       0.077200
     38 H10          2.0670    -1.0780     8.0710 hc         1 1R9       0.077200
     39 H11          0.7730     1.5180     6.9790 hc         1 1R9       0.077200
     40 H12          2.4180     1.3550     7.8710 hc         1 1R9       0.077200
     41 H13          5.6900     1.9020    -2.0870 h4         1 1R9       0.071100
     42 H14          3.2540    -0.6560    -6.7480 ha         1 1R9       0.138000
     43 H15          3.7410    -0.9570    -9.1430 ha         1 1R9       0.139000
     44 H16          5.7940    -0.0070   -10.1170 ha         1 1R9       0.140000
     45 H17          7.3700     1.2540    -8.7060 ha         1 1R9       0.150000
     46 H18          1.7470    -0.5320    -1.9860 hn         1 1R9       0.325500
@<TRIPOS>BOND
     1    13    12 1   
     2    13    11 1   
     3    12    11 1   
     4    11     9 1   
     5     9     8 1   
     6     8    10 2   
     7     8     4 1   
     8     5     4 ar  
     9     5     6 ar  
    10     4     3 ar  
    11     6     1 ar  
    12     3     2 ar  
    13     1     2 ar  
    14     1     7 1   
    15     2    26 1   
    16    26    14 1   
    17    14    27 2   
    18    14    15 1   
    19    16    15 2   
    20    16    17 1   
    21    15    19 1   
    22    17    18 2   
    23    19    18 1   
    24    18    20 1   
    25    28    25 1   
    26    20    25 ar  
    27    20    21 ar  
    28    25    24 ar  
    29    21    22 ar  
    30    24    23 ar  
    31    22    23 ar  
    32     3    29 1   
    33     5    30 1   
    34     6    31 1   
    35     7    32 1   
    36     7    33 1   
    37     7    34 1   
    38     9    35 1   
    39    11    36 1   
    40    12    37 1   
    41    12    38 1   
    42    13    39 1   
    43    13    40 1   
    44    16    41 1   
    45    21    42 1   
    46    22    43 1   
    47    23    44 1   
    48    24    45 1   
    49    26    46 1   
@<TRIPOS>SUBSTRUCTURE
     1 1R9         1 TEMP              0 ****  ****    0 ROOT
