@<TRIPOS>MOLECULE
molecule
   53    56     1     0     0
SMALL
bcc


@<TRIPOS>ATOM
      1 C1           0.0000     0.0000     0.0000 ca         1 1RA      -0.102300
      2 N10          1.4300    -0.0030     4.8540 ns         1 1RA      -0.553900
      3 C11          2.1550    -0.0040     6.1270 cx         1 1RA       0.064700
      4 C12          1.4340    -0.5780     7.3500 cx         1 1RA      -0.159900
      5 C13          1.6530     0.9330     7.2270 cx         1 1RA      -0.159900
      6 N14          2.0890     0.0020    -1.2110 ns         1 1RA      -0.472100
      7 C16          3.3430     0.4930    -1.2640 c          1 1RA       0.675700
      8 O17          3.8280     1.0270    -0.2850 o          1 1RA      -0.578100
      9 C18          4.1250     0.3850    -2.5110 ca         1 1RA      -0.145600
     10 C19          5.4230     0.8940    -2.5620 ca         1 1RA      -0.042000
     11 C2           1.3900     0.0000     0.0000 ca         1 1RA       0.052600
     12 C20          4.2790    -0.3420    -4.7910 ca         1 1RA      -0.097000
     13 C21          3.5650    -0.2360    -3.6350 ca         1 1RA      -0.123000
     14 C22          5.5780     0.1690    -4.8590 ca         1 1RA      -0.072800
     15 C23          6.1540     0.7900    -3.7330 ca         1 1RA       0.006600
     16 N24          7.4300     1.1850    -4.0950 n          1 1RA      -0.203200
     17 C25          7.6690     0.8360    -5.4000 cc         1 1RA      -0.051400
     18 C26          6.5920     0.2210    -5.9150 cd         1 1RA      -0.181200
     19 C27          8.3050     1.8180    -3.2880 c          1 1RA       0.758100
     20 O28          7.9930     2.0850    -2.1450 o          1 1RA      -0.557000
     21 O29          9.5230     2.1560    -3.7500 os         1 1RA      -0.432900
     22 C3           2.0820     0.0000     1.2010 ca         1 1RA      -0.074000
     23 C30         10.4130     2.8360    -2.8250 c3         1 1RA       0.162400
     24 C31         11.7400     3.1360    -3.5240 c3         1 1RA      -0.098100
     25 C4           1.3800    -0.0010     2.4060 ca         1 1RA      -0.132600
     26 C5          -0.0160    -0.0020     2.3950 ca         1 1RA      -0.126000
     27 C6          -0.6970    -0.0010     1.1950 ca         1 1RA      -0.118000
     28 C7          -0.7510     0.0060    -1.3080 c3         1 1RA      -0.050800
     29 C8           2.1110    -0.0020     3.6910 c          1 1RA       0.678700
     30 O9           3.3270    -0.0020     3.6990 o          1 1RA      -0.596100
     31 H1           0.4290    -0.0060     4.8490 hn         1 1RA       0.316500
     32 H2           3.2270    -0.1600     6.1190 h1         1 1RA       0.125700
     33 H3           0.4210    -0.9190     7.1770 hc         1 1RA       0.076450
     34 H4           2.0650    -1.0850     8.0700 hc         1 1RA       0.076450
     35 H5           0.7720     1.5140     6.9800 hc         1 1RA       0.076450
     36 H6           2.4170     1.3490     7.8730 hc         1 1RA       0.076450
     37 H7           1.6740    -0.4000    -2.0290 hn         1 1RA       0.327500
     38 H8           5.8170     1.4590    -1.7260 ha         1 1RA       0.189000
     39 H9           3.8400    -0.8220    -5.6560 ha         1 1RA       0.137000
     40 H10          2.5600    -0.6370    -3.5840 ha         1 1RA       0.123000
     41 H11          8.5900     1.0270    -5.9360 h4         1 1RA       0.185000
     42 H12          6.4920    -0.1640    -6.9220 ha         1 1RA       0.163000
     43 H13          3.1660     0.0000     1.2030 ha         1 1RA       0.200000
     44 H14         10.5930     2.2020    -1.9650 h1         1 1RA       0.056200
     45 H15          9.9570     3.7640    -2.5010 h1         1 1RA       0.056200
     46 H16         11.5610     3.7700    -4.3840 hc         1 1RA       0.051033
     47 H17         12.4050     3.6430    -2.8340 hc         1 1RA       0.051033
     48 H18         12.1960     2.2080    -3.8480 hc         1 1RA       0.051033
     49 H19         -0.5650    -0.0030     3.3280 ha         1 1RA       0.122000
     50 H20         -1.7800    -0.0010     1.1880 ha         1 1RA       0.133000
     51 H21         -0.5460    -0.9110    -1.8460 hc         1 1RA       0.044367
     52 H22         -1.8140     0.0810    -1.1130 hc         1 1RA       0.044367
     53 H23         -0.4320     0.8530    -1.9030 hc         1 1RA       0.044367
@<TRIPOS>BOND
     1    27    26 ar
     2    27     1 ar
     3    28     1 1
     4    26    25 ar
     5     1    11 ar
     6     4     5 1
     7     4     3 1
     8     2     3 1
     9     2    29 1
    10    25    29 1
    11    25    22 ar
    12     5     3 1
    13    11    22 ar
    14    11     6 1
    15    29    30 2
    16     6     7 1
    17     7     8 2
    18     7     9 1
    19    13     9 ar
    20    13    12 ar
    21     9    10 ar
    22    12    14 ar
    23    10    15 ar
    24    14    15 ar
    25    14    18 1
    26    15    16 1
    27    18    17 2
    28    24    23 1
    29    21    23 1
    30    21    19 1
    31    16    17 1
    32    16    19 1
    33    19    20 2
    34     2    31 1
    35     3    32 1
    36     4    33 1
    37     4    34 1
    38     5    35 1
    39     5    36 1
    40     6    37 1
    41    10    38 1
    42    12    39 1
    43    13    40 1
    44    17    41 1
    45    18    42 1
    46    22    43 1
    47    23    44 1
    48    23    45 1
    49    24    46 1
    50    24    47 1
    51    24    48 1
    52    26    49 1
    53    27    50 1
    54    28    51 1
    55    28    52 1
    56    28    53 1
@<TRIPOS>SUBSTRUCTURE
     1 1RA         1 TEMP              0 ****  ****    0 ROOT
