@<TRIPOS>MOLECULE
1RA
   53    56     1     0     0
SMALL
bcc


@<TRIPOS>ATOM
      1 C1           0.0000     0.0000     0.0000 ca         1 1RA      -0.110300
      2 N10          1.4300    -0.0030     4.8540 ns         1 1RA      -0.149900
      3 C11          2.1550    -0.0040     6.1270 cx         1 1RA      -0.041300
      4 C12          1.4340    -0.5780     7.3500 cx         1 1RA      -0.097400
      5 C13          1.6530     0.9330     7.2270 cx         1 1RA      -0.097400
      6 N14          2.0890     0.0020    -1.2110 ns         1 1RA      -0.037100
      7 C16          3.3430     0.4930    -1.2640 c          1 1RA       0.584700
      8 O17          3.8280     1.0270    -0.2850 o          1 1RA      -0.617100
      9 C18          4.1250     0.3850    -2.5110 ca         1 1RA      -0.160600
     10 C19          5.4230     0.8940    -2.5620 ca         1 1RA       0.002000
     11 C2           1.3900     0.0000     0.0000 ca         1 1RA      -0.092400
     12 C20          4.2790    -0.3420    -4.7910 ca         1 1RA      -0.059000
     13 C21          3.5650    -0.2360    -3.6350 ca         1 1RA      -0.103000
     14 C22          5.5780     0.1690    -4.8590 ca         1 1RA      -0.079800
     15 C23          6.1540     0.7900    -3.7330 ca         1 1RA      -0.170400
     16 N24          7.4300     1.1850    -4.0950 n          1 1RA       0.284800
     17 C25          7.6690     0.8360    -5.4000 cc         1 1RA      -0.214400
     18 C26          6.5920     0.2210    -5.9150 cd         1 1RA      -0.133200
     19 C27          8.3050     1.8180    -3.2880 c          1 1RA       0.667100
     20 O28          7.9930     2.0850    -2.1450 o          1 1RA      -0.599000
     21 O29          9.5230     2.1560    -3.7500 os         1 1RA      -0.418900
     22 C3           2.0820     0.0000     1.2010 ca         1 1RA      -0.050000
     23 C30         10.4130     2.8360    -2.8250 c3         1 1RA       0.241400
     24 C31         11.7400     3.1360    -3.5240 c3         1 1RA      -0.005100
     25 C4           1.3800    -0.0010     2.4060 ca         1 1RA      -0.139600
     26 C5          -0.0160    -0.0020     2.3950 ca         1 1RA      -0.105000
     27 C6          -0.6970    -0.0010     1.1950 ca         1 1RA      -0.090000
     28 C7          -0.7510     0.0060    -1.3080 c3         1 1RA       0.061200
     29 C8           2.1110    -0.0020     3.6910 c          1 1RA       0.595700
     30 O9           3.3270    -0.0020     3.6990 o          1 1RA      -0.635100
     31 H1           0.4290    -0.0060     4.8490 hn         1 1RA       0.174500
     32 H2           3.2270    -0.1600     6.1190 h1         1 1RA       0.097700
     33 H3           0.4210    -0.9190     7.1770 hc         1 1RA       0.047450
     34 H4           2.0650    -1.0850     8.0700 hc         1 1RA       0.047450
     35 H5           0.7720     1.5140     6.9800 hc         1 1RA       0.047450
     36 H6           2.4170     1.3490     7.8730 hc         1 1RA       0.047450
     37 H7           1.6740    -0.4000    -2.0290 hn         1 1RA       0.177500
     38 H8           5.8170     1.4590    -1.7260 ha         1 1RA       0.160000
     39 H9           3.8400    -0.8220    -5.6560 ha         1 1RA       0.106000
     40 H10          2.5600    -0.6370    -3.5840 ha         1 1RA       0.100000
     41 H11          8.5900     1.0270    -5.9360 h4         1 1RA       0.155000
     42 H12          6.4920    -0.1640    -6.9220 ha         1 1RA       0.132000
     43 H13          3.1660     0.0000     1.2030 ha         1 1RA       0.179000
     44 H14         10.5930     2.2020    -1.9650 h1         1 1RA       0.014200
     45 H15          9.9570     3.7640    -2.5010 h1         1 1RA       0.014200
     46 H16         11.5610     3.7700    -4.3840 hc         1 1RA       0.012367
     47 H17         12.4050     3.6430    -2.8340 hc         1 1RA       0.012367
     48 H18         12.1960     2.2080    -3.8480 hc         1 1RA       0.012367
     49 H19         -0.5650    -0.0030     3.3280 ha         1 1RA       0.100000
     50 H20         -1.7800    -0.0010     1.1880 ha         1 1RA       0.107000
     51 H21         -0.5460    -0.9110    -1.8460 hc         1 1RA       0.008367
     52 H22         -1.8140     0.0810    -1.1130 hc         1 1RA       0.008367
     53 H23         -0.4320     0.8530    -1.9030 hc         1 1RA       0.008367
@<TRIPOS>BOND
     1     1    11 ar  
     2     1    27 ar  
     3     1    28 1   
     4     2     3 1   
     5     2    29 1   
     6     2    31 1   
     7     3     4 1   
     8     3     5 1   
     9     3    32 1   
    10     4     5 1   
    11     4    33 1   
    12     4    34 1   
    13     5    35 1   
    14     5    36 1   
    15     6     7 1   
    16     6    11 1   
    17     6    37 1   
    18     7     8 2   
    19     7     9 1   
    20     9    10 ar  
    21     9    13 ar  
    22    10    15 ar  
    23    10    38 1   
    24    11    22 ar  
    25    12    13 ar  
    26    12    14 ar  
    27    12    39 1   
    28    13    40 1   
    29    14    15 ar  
    30    14    18 1   
    31    15    16 1   
    32    16    17 1   
    33    16    19 1   
    34    17    18 2   
    35    17    41 1   
    36    18    42 1   
    37    19    20 2   
    38    19    21 1   
    39    21    23 1   
    40    22    25 ar  
    41    22    43 1   
    42    23    24 1   
    43    23    44 1   
    44    23    45 1   
    45    24    46 1   
    46    24    47 1   
    47    24    48 1   
    48    25    26 ar  
    49    25    29 1   
    50    26    27 ar  
    51    26    49 1   
    52    27    50 1   
    53    28    51 1   
    54    28    52 1   
    55    28    53 1   
    56    29    30 2   
@<TRIPOS>SUBSTRUCTURE
     1 1RA         1 TEMP              0 ****  ****    0 ROOT
