@<TRIPOS>MOLECULE
1RA
   54    57     1     0     0
SMALL
bcc


@<TRIPOS>ATOM
      1 C1           0.0520     0.8770     0.0690 ca         1 1RA      -0.064300
      2 N10          1.1040    -0.8480     4.7760 ny         1 1RA      -0.650800
      3 C11          2.4970    -0.7630     5.2420 cx         1 1RA      -0.001500
      4 C12          2.8800     0.1750     6.3690 cx         1 1RA      -0.101400
      5 C13          3.3450     0.4650     4.9760 cx         1 1RA      -0.101400
      6 N14          1.9320    -0.0850    -1.1560 ns         1 1RA      -0.476100
      7 C16          3.2270    -0.6110    -1.2720 c          1 1RA       0.697700
      8 O17          3.8050    -1.1300    -0.3020 o          1 1RA      -0.585100
      9 C18          3.8440    -0.5220    -2.6230 ca         1 1RA      -0.157600
     10 C19          4.5430    -1.6400    -3.0830 ca         1 1RA      -0.057000
     11 C2           1.1650    -0.0130     0.0060 ca         1 1RA       0.093600
     12 C20          4.3390     0.7480    -4.6390 ca         1 1RA      -0.089000
     13 C21          3.7470     0.6570    -3.3850 ca         1 1RA      -0.127000
     14 C22          5.0310    -0.3520    -5.1410 ca         1 1RA      -0.051800
     15 C23          5.1310    -1.5570    -4.3480 ca         1 1RA       0.003600
     16 N24          5.8820    -2.4940    -5.0890 n          1 1RA      -0.238200
     17 C25          6.2460    -1.8890    -6.3180 cc         1 1RA      -0.015400
     18 C26          5.7460    -0.6000    -6.3780 cd         1 1RA      -0.177200
     19 C27          6.2520    -3.7960    -4.7420 c          1 1RA       0.761100
     20 O28          6.9280    -4.5570    -5.4460 o          1 1RA      -0.536000
     21 O29          5.8000    -4.2140    -3.5170 os         1 1RA      -0.432900
     22 C3           1.4470    -0.8190     1.1340 ca         1 1RA      -0.091000
     23 C30          6.1970    -5.5600    -3.1550 c3         1 1RA       0.147400
     24 C31          5.6010    -5.8020    -1.7900 c3         1 1RA      -0.105100
     25 C4           0.6780    -0.6970     2.2950 ca         1 1RA      -0.180600
     26 C5          -0.4050     0.1870     2.3580 ca         1 1RA      -0.136000
     27 C6          -0.7100     0.9510     1.2380 ca         1 1RA      -0.096000
     28 C7          -0.3200     1.7230    -1.0890 c3         1 1RA      -0.076800
     29 C8           1.0250    -1.5640     3.4230 c          1 1RA       0.590700
     30 O9           1.2730    -2.7570     3.4560 o          1 1RA      -0.405100
     31 H1           0.7040     0.0920     4.6880 hn         1 1RA       0.454300
     32 H2           2.9730    -1.7720     5.1900 hx         1 1RA       0.154700
     33 H3           3.5980    -0.2040     7.1230 hc         1 1RA       0.110450
     34 H4           2.1170     0.8320     6.8290 hc         1 1RA       0.110450
     35 H5           2.9160     1.3290     4.4340 hc         1 1RA       0.110450
     36 H6           4.4050     0.2990     4.7010 hc         1 1RA       0.110450
     37 H7           1.5370     0.3270    -1.9750 hn         1 1RA       0.337500
     38 H8           4.6340    -2.5480    -2.4640 ha         1 1RA       0.177000
     39 H9           4.2690     1.6740    -5.2290 ha         1 1RA       0.152000
     40 H10          3.2220     1.5350    -2.9810 ha         1 1RA       0.130000
     41 H11          6.8410    -2.4610    -7.0390 h4         1 1RA       0.202000
     42 H12          5.8620     0.1080    -7.1950 ha         1 1RA       0.176000
     43 H13          2.2760    -1.5510     1.1090 ha         1 1RA       0.197000
     44 H14          7.3160    -5.6100    -3.1460 h1         1 1RA       0.064700
     45 H15          5.7970    -6.2680    -3.9260 h1         1 1RA       0.064700
     46 H16          4.4880    -5.7320    -1.8270 hc         1 1RA       0.053367
     47 H17          5.8930    -6.8250    -1.4490 hc         1 1RA       0.053367
     48 H18          5.9790    -5.0500    -1.0560 hc         1 1RA       0.053367
     49 H19         -1.0420     0.2590     3.2520 ha         1 1RA       0.133000
     50 H20         -1.5760     1.6350     1.2720 ha         1 1RA       0.161000
     51 H21          0.5360     2.3780    -1.3930 hc         1 1RA       0.065700
     52 H22         -0.6120     1.0870    -1.9640 hc         1 1RA       0.065700
     53 H23         -1.1880     2.3850    -0.8440 hc         1 1RA       0.065700
     54 H102         0.5680    -1.3790     5.4730 hn         1 1RA       0.454300
@<TRIPOS>BOND
     1     1    11 ar  
     2     1    27 ar  
     3     1    28 1   
     4     2     3 1   
     5     2    29 1   
     6     2    31 1   
     7     2    54 1   
     8     3     4 1   
     9     3     5 1   
    10     3    32 1   
    11     4     5 1   
    12     4    33 1   
    13     4    34 1   
    14     5    35 1   
    15     5    36 1   
    16     6     7 1   
    17     6    11 1   
    18     6    37 1   
    19     7     8 2   
    20     7     9 1   
    21     9    10 ar  
    22     9    13 ar  
    23    10    15 ar  
    24    10    38 1   
    25    11    22 ar  
    26    12    13 ar  
    27    12    14 ar  
    28    12    39 1   
    29    13    40 1   
    30    14    15 ar  
    31    14    18 1   
    32    15    16 1   
    33    16    17 1   
    34    16    19 1   
    35    17    18 2   
    36    17    41 1   
    37    18    42 1   
    38    19    20 2   
    39    19    21 1   
    40    21    23 1   
    41    22    25 ar  
    42    22    43 1   
    43    23    24 1   
    44    23    44 1   
    45    23    45 1   
    46    24    46 1   
    47    24    47 1   
    48    24    48 1   
    49    25    26 ar  
    50    25    29 1   
    51    26    27 ar  
    52    26    49 1   
    53    27    50 1   
    54    28    51 1   
    55    28    52 1   
    56    28    53 1   
    57    29    30 2   
@<TRIPOS>SUBSTRUCTURE
     1 1RA         1 TEMP              0 ****  ****    0 ROOT
