@<TRIPOS>MOLECULE
1RB
   35    37     1     0     0
SMALL
bcc


@<TRIPOS>ATOM
      1 N3          -0.0050    -0.6180    -0.0310 nc         1 1RB      -0.625100
      2 N1           1.8360    -0.2490     1.3100 na         1 1RB      -0.154300
      3 C2           1.3350    -0.6980     0.0760 cd         1 1RB       0.426700
      4 C7A          0.7200     0.1500     2.0550 ca         1 1RB      -0.058200
      5 C3A         -0.4370    -0.0850     1.1980 ca         1 1RB       0.051400
      6 C4          -1.7190     0.2220     1.6750 ca         1 1RB      -0.101000
      7 C5          -1.8420     0.7400     2.9540 ca         1 1RB      -0.167000
      8 C6          -0.7210     0.9550     3.7760 ca         1 1RB      -0.147000
      9 C7           0.5650     0.6650     3.3500 ca         1 1RB      -0.092000
     10 P            6.4040    -2.1950     5.9400 p5         1 1RB       1.334900
     11 O1P          7.5190    -1.1960     5.8240 o          1 1RB      -0.929833
     12 O2P          6.2320    -2.9250     7.2340 o          1 1RB      -0.929833
     13 O3P          6.1520    -2.9840     4.6680 o          1 1RB      -0.929833
     14 O5'          4.9970    -1.1640     5.8580 os         1 1RB      -0.556200
     15 C5'          4.9770    -0.3420     4.7670 c3         1 1RB       0.240400
     16 C4'          3.9880    -0.8810     3.7020 c3         1 1RB       0.058100
     17 O4'          3.4460     0.2580     2.9800 os         1 1RB      -0.428600
     18 C3'          4.6430    -1.8070     2.6620 c3         1 1RB       0.132100
     19 O3'          4.1850    -3.1300     2.8040 oh         1 1RB      -0.686800
     20 C2'          4.1930    -1.2670     1.2830 c3         1 1RB       0.106100
     21 O2'          3.6270    -2.2200     0.4190 oh         1 1RB      -0.625800
     22 C1'          3.2500    -0.0590     1.6150 c3         1 1RB       0.220800
     23 H2           2.0120    -1.1060    -0.6880 h5         1 1RB       0.079800
     24 H4          -2.6000     0.0470     1.0430 ha         1 1RB       0.120000
     25 H5          -2.8400     0.9840     3.3450 ha         1 1RB       0.105000
     26 H6          -0.8730     1.3540     4.7900 ha         1 1RB       0.119000
     27 H7           1.4460     0.8100     3.9980 ha         1 1RB       0.180000
     28 H5'1         4.6020     0.6820     5.0660 h1         1 1RB       0.002200
     29 H5'2         6.0020    -0.2370     4.3120 h1         1 1RB       0.002200
     30 H4'          3.1310    -1.4010     4.2050 h1         1 1RB       0.067700
     31 H3'          5.7660    -1.7830     2.7500 h1         1 1RB       0.121700
     32 HO23         4.7300    -3.5140     3.5360 ho         1 1RB       0.517000
     33 H2'          5.0740    -0.8490     0.7210 h1         1 1RB       0.057700
     34 HO22         3.2720    -2.9420     0.9600 ho         1 1RB       0.441000
     35 H1'          3.5730     0.8620     1.0380 h2         1 1RB       0.047700
@<TRIPOS>BOND
     1     1     3 2   
     2     1     5 1   
     3     2     3 1   
     4     2     4 1   
     5     2    22 1   
     6     3    23 1   
     7     4     5 ar  
     8     4     9 ar  
     9     5     6 ar  
    10     6     7 ar  
    11     6    24 1   
    12     7     8 ar  
    13     7    25 1   
    14     8     9 ar  
    15     8    26 1   
    16     9    27 1   
    17    10    11 1   
    18    10    12 1   
    19    10    13 1   
    20    10    14 1   
    21    14    15 1   
    22    15    16 1   
    23    15    28 1   
    24    15    29 1   
    25    16    17 1   
    26    16    18 1   
    27    16    30 1   
    28    17    22 1   
    29    18    19 1   
    30    18    20 1   
    31    18    31 1   
    32    19    32 1   
    33    20    21 1   
    34    20    22 1   
    35    20    33 1   
    36    21    34 1   
    37    22    35 1   
@<TRIPOS>SUBSTRUCTURE
     1 1RB         1 TEMP              0 ****  ****    0 ROOT
