@<TRIPOS>MOLECULE
molecule
   35    37     1     0     0
SMALL
bcc


@<TRIPOS>ATOM
      1 N3           0.0000     0.0000     0.0000 nc         1 1RB      -0.639100
      2 N1           1.7690     0.0000     1.2770 na         1 1RB      -0.150300
      3 C2           1.3010     0.0000     0.0000 cd         1 1RB       0.482700
      4 C7A          0.6730    -0.0070     2.1170 ca         1 1RB      -0.074200
      5 C3A         -0.4570    -0.0010     1.2790 ca         1 1RB       0.097400
      6 C4          -1.7330    -0.0010     1.8460 ca         1 1RB      -0.083000
      7 C5          -1.8740    -0.0030     3.2060 ca         1 1RB      -0.165000
      8 C6          -0.7600    -0.0030     4.0320 ca         1 1RB      -0.149000
      9 C7           0.5090    -0.0020     3.4940 ca         1 1RB      -0.110000
     10 P            6.5230    -0.3390    -2.9970 p5         1 1RB       1.144900
     11 O1P          7.7120    -0.4730    -2.1270 o          1 1RB      -0.905167
     12 O2P          6.4560    -1.5880    -4.0110 o          1 1RB      -0.905167
     13 O3P          6.6250     1.0290    -3.8390 o          1 1RB      -0.905167
     14 O5'          5.1930    -0.3130    -2.0890 os         1 1RB      -0.527200
     15 C5'          5.3640     0.7390    -1.1370 c3         1 1RB       0.166400
     16 C4'          4.1290     0.8180    -0.2380 c3         1 1RB       0.103100
     17 O4'          4.0240    -0.3710     0.5780 os         1 1RB      -0.346600
     18 C3'          4.2640     1.9780     0.7720 c3         1 1RB       0.089100
     19 O3'          3.5530     3.1290     0.3120 oh         1 1RB      -0.578800
     20 C2'          3.6240     1.4280     2.0670 c3         1 1RB       0.073100
     21 O2'          2.5000     2.2240     2.4480 oh         1 1RB      -0.570800
     22 C1'          3.1750     0.0000     1.6870 c3         1 1RB       0.239800
     23 H2           1.9210    -0.0030    -0.8880 h5         1 1RB       0.118800
     24 H4          -2.6100    -0.0010     1.2100 ha         1 1RB       0.126000
     25 H5          -2.8660    -0.0030     3.6430 ha         1 1RB       0.109000
     26 H6          -0.8880    -0.0040     5.1080 ha         1 1RB       0.109000
     27 H7           1.3750    -0.0020     4.1440 ha         1 1RB       0.115000
     28 H5'1         6.2510     0.5500    -0.5450 h1         1 1RB       0.055200
     29 H5'2         5.4720     1.6830    -1.6580 h1         1 1RB       0.055200
     30 H4'          3.2320     0.9430    -0.8330 h1         1 1RB       0.068700
     31 H3'          5.3080     2.2120     0.9390 h1         1 1RB       0.057700
     32 HO23         4.1230     3.8790     0.3310 ho         1 1RB       0.392000
     33 H2'          4.3580     1.3920     2.8630 h1         1 1RB       0.037700
     34 HO22         2.7630     2.8430     3.1090 ho         1 1RB       0.386000
     35 H1'          3.3300    -0.6750     2.5200 h2         1 1RB       0.082700
@<TRIPOS>BOND
     1     1     3 2   
     2     1     5 1   
     3     2     3 1   
     4     2     4 1   
     5     2    22 1   
     6     3    23 1   
     7     4     5 ar  
     8     4     9 ar  
     9     5     6 ar  
    10     6     7 ar  
    11     6    24 1   
    12     7     8 ar  
    13     7    25 1   
    14     8     9 ar  
    15     8    26 1   
    16     9    27 1   
    17    10    11 1   
    18    10    12 1   
    19    10    13 1   
    20    10    14 1   
    21    14    15 1   
    22    15    16 1   
    23    15    28 1   
    24    15    29 1   
    25    16    17 1   
    26    16    18 1   
    27    16    30 1   
    28    17    22 1   
    29    18    19 1   
    30    18    20 1   
    31    18    31 1   
    32    19    32 1   
    33    20    21 1   
    34    20    22 1   
    35    20    33 1   
    36    21    34 1   
    37    22    35 1   
@<TRIPOS>SUBSTRUCTURE
     1 1RB         1 TEMP              0 ****  ****    0 ROOT
