@<TRIPOS>MOLECULE
1RB
   35    37     1     0     0
SMALL
bcc


@<TRIPOS>ATOM
      1 N3         -0.4460    0.7920    0.3240 nc        1 1RB     -0.625100
      2 N1          1.5540    0.5860    1.4520 na        1 1RB     -0.155300
      3 C2          0.8930    0.9220    0.2550 cd        1 1RB      0.458700
      4 C7A         0.5580    0.1860    2.3480 ca        1 1RB     -0.065200
      5 C3A        -0.7050    0.3300    1.6280 ca        1 1RB      0.068400
      6 C4         -1.9030    0.0160    2.2790 ca        1 1RB     -0.091000
      7 C5         -1.8500   -0.4260    3.5940 ca        1 1RB     -0.175000
      8 C6         -0.6310   -0.5640    4.2770 ca        1 1RB     -0.146000
      9 C7          0.5820   -0.2630    3.6730 ca        1 1RB     -0.122000
     10 P           6.9310    0.9020   -2.2260 p5        1 1RB      1.331900
     11 O1P         7.7030    1.0950   -0.9500 o         1 1RB     -0.927500
     12 O2P         7.6700    0.4620   -3.4490 o         1 1RB     -0.927500
     13 O3P         5.8330    1.9350   -2.3960 o         1 1RB     -0.927500
     14 O5'         5.9330   -0.4720   -1.8320 os        1 1RB     -0.562200
     15 C5'         5.5560   -0.5960   -0.5240 c3        1 1RB      0.224400
     16 C4'         4.1590    0.0360   -0.2900 c3        1 1RB      0.054100
     17 O4'         3.6140   -0.4750    0.9540 os        1 1RB     -0.428600
     18 C3'         4.2480    1.5700   -0.1660 c3        1 1RB      0.088100
     19 O3'         3.4130    2.1980   -1.1170 oh        1 1RB     -0.698800
     20 C2'         3.7290    1.8910    1.2480 c3        1 1RB      0.111100
     21 O2'         2.9420    3.0480    1.3610 oh        1 1RB     -0.609800
     22 C1'         2.9920    0.5760    1.6820 c3        1 1RB      0.211800
     23 H2          1.4780    1.2620   -0.6230 h5        1 1RB      0.117800
     24 H4         -2.8620    0.1190    1.7540 ha        1 1RB      0.126000
     25 H5         -2.7830   -0.6780    4.1170 ha        1 1RB      0.105000
     26 H6         -0.6390   -0.9210    5.3160 ha        1 1RB      0.108000
     27 H7          1.5310   -0.3780    4.2130 ha        1 1RB      0.131000
     28 H5'1        5.4660   -1.6900   -0.2620 h1        1 1RB      0.009700
     29 H5'2        6.3010   -0.1070    0.1650 h1        1 1RB      0.009700
     30 H4'         3.4530   -0.2570   -1.1100 h1        1 1RB      0.056700
     31 H3'         5.3260    1.8970   -0.3400 h1        1 1RB      0.171700
     32 HO23        3.9870    2.3310   -1.9080 ho        1 1RB      0.509000
     33 H2'         4.5890    2.0370    1.9580 h1        1 1RB      0.077700
     34 HO22        2.5630    3.2330    0.4880 ho        1 1RB      0.427000
     35 H1'         3.1490    0.3400    2.7720 h2        1 1RB      0.065700
@<TRIPOS>BOND
     1    1    3 2   
     2    1    5 1   
     3    2    3 1   
     4    2    4 1   
     5    2   22 1   
     6    3   23 1   
     7    4    5 ar  
     8    4    9 ar  
     9    5    6 ar  
    10    6    7 ar  
    11    6   24 1   
    12    7    8 ar  
    13    7   25 1   
    14    8    9 ar  
    15    8   26 1   
    16    9   27 1   
    17   10   11 1   
    18   10   12 1   
    19   10   13 1   
    20   10   14 1   
    21   14   15 1   
    22   15   16 1   
    23   15   28 1   
    24   15   29 1   
    25   16   17 1   
    26   16   18 1   
    27   16   30 1   
    28   17   22 1   
    29   18   19 1   
    30   18   20 1   
    31   18   31 1   
    32   19   32 1   
    33   20   21 1   
    34   20   22 1   
    35   20   33 1   
    36   21   34 1   
    37   22   35 1   
@<TRIPOS>SUBSTRUCTURE
     1 1RB         1 TEMP              0 ****  ****    0 ROOT
