@<TRIPOS>MOLECULE
1RC
   42    44     1     0     0
SMALL
bcc


@<TRIPOS>ATOM
      1 N1           0.0000     0.0000     0.0000 n          1 1RC      -0.137800
      2 C4           0.9760    -0.0000     3.6330 ca         1 1RC      -0.076000
      3 C5           0.8170    -0.0010     2.2590 ca         1 1RC      -0.114300
      4 C6           1.9260     0.0000     1.4360 ca         1 1RC      -0.101300
      5 C7           1.4670     0.0000     0.0000 c3         1 1RC       0.102300
      6 C8          -0.4250    -0.0010     1.4040 c3         1 1RC       0.035000
      7 C10         -0.2210     0.1160    -2.4310 ca         1 1RC      -0.184600
      8 C13          0.8690     0.3160    -4.9760 ca         1 1RC       0.179100
      9 C15         -0.7710     1.0060    -3.3640 ca         1 1RC       0.215100
     10 C17         -2.5340    -2.6420     3.2020 c3         1 1RC       0.052000
     11 C1           2.2440     0.0000     4.1840 ca         1 1RC      -0.094000
     12 C2           3.3550    -0.0010     3.3600 ca         1 1RC      -0.092000
     13 C3           3.1950    -0.0000     1.9870 ca         1 1RC      -0.070000
     14 C9          -0.8030     0.0050    -1.0820 c          1 1RC       0.650700
     15 C11          0.8790    -0.6720    -2.7870 ca         1 1RC      -0.043000
     16 C12          1.4170    -0.5690    -4.0500 ca         1 1RC      -0.111600
     17 C14         -0.2170     1.1040    -4.6300 ca         1 1RC      -0.225000
     18 O1          -1.8410     1.7680    -3.0290 oh         1 1RC      -0.474100
     19 O2           1.4050     0.4100    -6.2190 oh         1 1RC      -0.493100
     20 Cl1          2.7770    -1.5520    -4.4930 cl         1 1RC      -0.004400
     21 O3          -2.0080    -0.0810    -0.9450 o          1 1RC      -0.607100
     22 C16         -1.2420    -1.2350     1.6890 c          1 1RC       0.566100
     23 N2          -1.7400    -1.4420     2.9240 ns         1 1RC      -0.206900
     24 C18         -2.9730    -2.6350     4.6670 c3         1 1RC      -0.008100
     25 O4          -1.4520    -2.0400     0.8070 o          1 1RC      -0.619100
     26 H4           0.1060     0.0000     4.2790 ha         1 1RC       0.102000
     27 H7           1.8220     0.9010    -0.4860 h1         1 1RC       0.030200
     28 H7A          1.8210    -0.9010    -0.4860 h1         1 1RC       0.030200
     29 H8          -1.0100     0.8880     1.6090 h1         1 1RC       0.049700
     30 H17         -3.4090    -2.6520     2.5630 h1         1 1RC       0.026700
     31 H17A        -1.9360    -3.5240     3.0090 h1         1 1RC       0.026700
     32 H1           2.3680     0.0000     5.2600 ha         1 1RC       0.107000
     33 H2           4.3490    -0.0000     3.7900 ha         1 1RC       0.107000
     34 H3           4.0650    -0.0010     1.3420 ha         1 1RC       0.106000
     35 H11          1.3080    -1.3610    -2.0700 ha         1 1RC       0.131000
     36 H14         -0.6400     1.7910    -5.3530 ha         1 1RC       0.128000
     37 HO1         -2.5080     1.6830    -3.6900 ho         1 1RC       0.414000
     38 HO2          2.0240     1.1210    -6.2420 ho         1 1RC       0.409000
     39 HN2         -1.6090    -0.7520     3.6370 hn         1 1RC       0.175500
     40 H18         -3.5250    -1.7260     4.8740 hc         1 1RC       0.007033
     41 H18A        -2.1000    -2.6810     5.3060 hc         1 1RC       0.007033
     42 H18B        -3.6070    -3.4930     4.8580 hc         1 1RC       0.007033
@<TRIPOS>BOND
     1     1     5 1   
     2     1     6 1   
     3     1    14 1   
     4     2     3 ar  
     5     2    11 ar  
     6     2    26 1   
     7     3     4 ar  
     8     3     6 1   
     9     4     5 1   
    10     4    13 ar  
    11     5    27 1   
    12     5    28 1   
    13     6    22 1   
    14     6    29 1   
    15     7     9 ar  
    16     7    14 1   
    17     7    15 ar  
    18     8    16 ar  
    19     8    17 ar  
    20     8    19 1   
    21     9    17 ar  
    22     9    18 1   
    23    10    23 1   
    24    10    24 1   
    25    10    30 1   
    26    10    31 1   
    27    11    12 ar  
    28    11    32 1   
    29    12    13 ar  
    30    12    33 1   
    31    13    34 1   
    32    14    21 2   
    33    15    16 ar  
    34    15    35 1   
    35    16    20 1   
    36    17    36 1   
    37    18    37 1   
    38    19    38 1   
    39    22    23 1   
    40    22    25 2   
    41    23    39 1   
    42    24    40 1   
    43    24    41 1   
    44    24    42 1   
@<TRIPOS>SUBSTRUCTURE
     1 1RC         1 TEMP              0 ****  ****    0 ROOT
