@<TRIPOS>MOLECULE
1RC
   43    45     1     0     0
SMALL
bcc


@<TRIPOS>ATOM
      1 N1           0.0170    -0.4080    -0.2150 n          1 1RC      -0.485800
      2 C4           0.6270     0.2220     3.4190 ca         1 1RC      -0.086000
      3 C5           0.6160    -0.0340     2.0600 ca         1 1RC      -0.182300
      4 C6           1.8110    -0.0150     1.2990 ca         1 1RC      -0.102300
      5 C7           1.4850    -0.2480    -0.1490 c3         1 1RC       0.100300
      6 C8          -0.5500    -0.2850     1.1270 c3         1 1RC       0.090000
      7 C10         -2.1300     0.2310    -1.3200 ca         1 1RC      -0.236600
      8 C13         -4.9220     0.4630    -1.5180 ca         1 1RC       0.212100
      9 C15         -2.7980     1.3260    -0.7430 ca         1 1RC       0.198100
     10 C17         -1.0270    -4.0810     1.9170 c3         1 1RC       0.110800
     11 C1           1.8640     0.4740     4.0310 ca         1 1RC      -0.120000
     12 C2           3.0420     0.4780     3.2880 ca         1 1RC      -0.089000
     13 C3           3.0280     0.2370     1.9050 ca         1 1RC      -0.097000
     14 C9          -0.6490     0.1420    -1.3420 c          1 1RC       0.683700
     15 C11         -2.8740    -0.7350    -2.0070 ca         1 1RC      -0.039000
     16 C12         -4.2610    -0.6470    -2.0990 ca         1 1RC      -0.049600
     17 C14         -4.1890     1.4480    -0.8420 ca         1 1RC      -0.294000
     18 O1          -2.0320     2.2350    -0.0570 oh         1 1RC      -0.507100
     19 O2          -6.2800     0.5240    -1.6320 oh         1 1RC      -0.458100
     20 Cl1         -5.1090    -1.8590    -2.9190 cl         1 1RC      -0.031400
     21 O3           0.0230     0.4220    -2.3420 o          1 1RC      -0.505100
     22 C16         -1.2500    -1.5770     1.5820 c          1 1RC       0.537100
     23 N2          -0.5440    -2.8610     1.2020 ny         1 1RC      -0.670800
     24 C18         -2.2800    -4.6760     1.3110 c3         1 1RC      -0.133100
     25 O4          -2.2720    -1.6580     2.2410 o          1 1RC      -0.410100
     26 H4          -0.3010     0.2420     4.0110 ha         1 1RC       0.152000
     27 H7           1.8260     0.6120    -0.7930 h1         1 1RC       0.092700
     28 H7A          1.9610    -1.1890    -0.5400 h1         1 1RC       0.092700
     29 H8          -1.3310     0.5320     1.2010 h1         1 1RC       0.149700
     30 H17         -0.1890    -4.8370     1.8860 hx         1 1RC       0.105700
     31 H17A        -1.2200    -3.7950     2.9920 hx         1 1RC       0.105700
     32 H1           1.8970     0.6820     5.1130 ha         1 1RC       0.160000
     33 H2           4.0030     0.6870     3.7880 ha         1 1RC       0.161000
     34 H3           3.9620     0.2640     1.3240 ha         1 1RC       0.162000
     35 H11         -2.3470    -1.5660    -2.5060 ha         1 1RC       0.159000
     36 H14         -4.7020     2.3170    -0.4040 ha         1 1RC       0.160000
     37 HO1         -2.5630     3.0320     0.1020 ho         1 1RC       0.449000
     38 HO2         -6.5890     1.3620    -1.2490 ho         1 1RC       0.441000
     39 HN2          0.4570    -2.7230     1.3890 hn         1 1RC       0.466300
     40 H18         -3.1390    -3.9620     1.3720 hc         1 1RC       0.080367
     41 H18A        -2.5460    -5.5930     1.8960 hc         1 1RC       0.080367
     42 H18B        -2.1260    -4.9740     0.2450 hc         1 1RC       0.080367
     43 H23         -0.6640    -2.9920     0.1890 hn         1 1RC       0.466300
@<TRIPOS>BOND
     1     1     5 1   
     2     1     6 1   
     3     1    14 1   
     4     2     3 ar  
     5     2    11 ar  
     6     2    26 1   
     7     3     4 ar  
     8     3     6 1   
     9     4     5 1   
    10     4    13 ar  
    11     5    27 1   
    12     5    28 1   
    13     6    22 1   
    14     6    29 1   
    15     7     9 ar  
    16     7    14 1   
    17     7    15 ar  
    18     8    16 ar  
    19     8    17 ar  
    20     8    19 1   
    21     9    17 ar  
    22     9    18 1   
    23    10    23 1   
    24    10    24 1   
    25    10    30 1   
    26    10    31 1   
    27    11    12 ar  
    28    11    32 1   
    29    12    13 ar  
    30    12    33 1   
    31    13    34 1   
    32    14    21 2   
    33    15    16 ar  
    34    15    35 1   
    35    16    20 1   
    36    17    36 1   
    37    18    37 1   
    38    19    38 1   
    39    22    23 1   
    40    22    25 2   
    41    23    39 1   
    42    23    43 1   
    43    24    40 1   
    44    24    41 1   
    45    24    42 1   
@<TRIPOS>SUBSTRUCTURE
     1 1RC         1 TEMP              0 ****  ****    0 ROOT
