@<TRIPOS>MOLECULE
1RD
   75    76     1     0     0
SMALL
bcc


@<TRIPOS>ATOM
      1 O23          2.1580    -1.8530    -0.3840 o          1 1RD      -0.456000
      2 C22          1.5970    -2.8390     0.0730 c          1 1RD       0.638100
      3 O24          1.9790    -3.6470     1.0550 os         1 1RD      -0.399900
      4 C25          3.1670    -3.2410     1.8680 c3         1 1RD       0.272700
      5 C26          2.8030    -2.2070     2.8230 cc         1 1RD      -0.377700
      6 S30          2.4580    -2.4270     4.4510 ss         1 1RD       0.105700
      7 C29          2.2670    -0.7690     4.6690 cc         1 1RD       0.383300
      8 N28          2.4510    -0.0140     3.5730 nd         1 1RD      -0.623000
      9 C27          2.7750    -0.8310     2.5220 cd         1 1RD       0.374200
     10 N21          0.2820    -3.3220    -0.5110 ny         1 1RD      -0.653800
     11 C20          0.0560    -2.8500    -1.9090 c3         1 1RD       0.120800
     12 C19         -0.3530    -1.3800    -2.0130 c3         1 1RD      -0.106400
     13 C18         -0.4720    -0.9910    -3.4780 c3         1 1RD      -0.104400
     14 C17         -0.8350     0.4900    -3.5790 c3         1 1RD       0.104800
     15 N16         -0.9560     0.9650    -5.0000 ny         1 1RD      -0.674800
     16 C14         -1.4930     2.3750    -5.1010 c          1 1RD       0.514100
     17 O15         -2.3920     2.6800    -4.3360 o          1 1RD      -0.384100
     18 C13         -0.8550     3.2840    -6.1800 c3         1 1RD       0.060700
     19 C31          0.5250     3.7970    -5.6790 c3         1 1RD      -0.085700
     20 C33          1.5830     2.7200    -5.7950 c3         1 1RD      -0.125600
     21 C32          0.4570     4.3450    -4.2720 c3         1 1RD      -0.125600
     22 N12         -1.7470     4.3900    -6.4990 ns         1 1RD      -0.525900
     23 C10         -2.5140     4.3620    -7.6360 c          1 1RD       0.651100
     24 O11         -2.6010     3.4130    -8.4240 o          1 1RD      -0.480100
     25 N08         -3.3690     5.5820    -8.0310 nx         1 1RD      -0.575200
     26 C09         -3.6350     6.5370    -6.9310 c3         1 1RD       0.062100
     27 C07         -2.7510     6.2510    -9.2370 c3         1 1RD       0.187100
     28 C06         -3.7520     6.9100   -10.1290 cc         1 1RD      -0.147600
     29 N05         -3.8150     8.2980   -10.3160 na         1 1RD      -0.099100
     30 C34         -4.6450     6.2520   -10.9700 cd         1 1RD      -0.207100
     31 S35         -5.4890     7.2930   -11.9430 ss         1 1RD       0.479200
     32 C04         -4.7170     8.6310   -11.2850 cc         1 1RD       0.005300
     33 C02         -5.0110    10.0320   -11.7270 c3         1 1RD      -0.037400
     34 C03         -5.8680     9.9900   -12.9800 c3         1 1RD      -0.121100
     35 C01         -3.7450    10.8340   -11.9590 c3         1 1RD      -0.121100
     36 H1           3.4080    -4.2380     2.3350 h1         1 1RD       0.116200
     37 H2           3.9610    -2.9120     1.1480 h1         1 1RD       0.116200
     38 H3           2.0230    -0.2980     5.6330 h5         1 1RD       0.091100
     39 H4           3.0040    -0.3920     1.5430 h4         1 1RD       0.045100
     40 H5           0.2850    -4.3550    -0.4930 hn         1 1RD       0.483300
     41 H6           1.0180    -3.0180    -2.4790 hx         1 1RD       0.118200
     42 H7          -0.7510    -3.5050    -2.3530 hx         1 1RD       0.118200
     43 H8           0.4200    -0.7340    -1.5110 hc         1 1RD       0.091700
     44 H9          -1.3350    -1.2140    -1.4940 hc         1 1RD       0.091700
     45 H10         -1.2620    -1.6200    -3.9710 hc         1 1RD       0.082700
     46 H11          0.5040    -1.1900    -3.9980 hc         1 1RD       0.082700
     47 H12         -0.0410     1.1210    -3.0800 hx         1 1RD       0.125700
     48 H13         -1.8240     0.6820    -3.0670 hx         1 1RD       0.125700
     49 H14         -1.6030     0.3380    -5.5010 hn         1 1RD       0.472800
     50 H15         -0.7010     2.6680    -7.1230 h1         1 1RD       0.131700
     51 H16          0.8320     4.6360    -6.3750 hc         1 1RD       0.107700
     52 H17          1.4650     2.1120    -6.7250 hc         1 1RD       0.068533
     53 H18          2.5940     3.2090    -5.8450 hc         1 1RD       0.068533
     54 H19          1.5990     2.0550    -4.8980 hc         1 1RD       0.068533
     55 H20          1.4740     4.6990    -3.9580 hc         1 1RD       0.068533
     56 H21          0.1280     3.5600    -3.5460 hc         1 1RD       0.068533
     57 H22         -0.2420     5.2130    -4.1990 hc         1 1RD       0.068533
     58 H23         -3.2190     8.9650    -9.8620 hn         1 1RD       0.360700
     59 H24         -4.0790     5.9940    -6.0510 hx         1 1RD       0.121700
     60 H25         -2.6930     7.0670    -6.6270 hx         1 1RD       0.121700
     61 H26         -4.3810     7.3040    -7.2850 hx         1 1RD       0.121700
     62 H27         -2.2350     5.4430    -9.8500 hx         1 1RD       0.142700
     63 H28         -1.9680     6.9790    -8.8700 hx         1 1RD       0.142700
     64 H29         -4.7540     5.1600   -11.0190 h4         1 1RD       0.236000
     65 H30         -5.6050    10.5290   -10.8970 hc         1 1RD       0.123700
     66 H31         -5.2730     9.6650   -13.8680 hc         1 1RD       0.079033
     67 H32         -6.2590    11.0200   -13.1940 hc         1 1RD       0.079033
     68 H33         -6.7510     9.3150   -12.8480 hc         1 1RD       0.079033
     69 H34         -3.0870    10.3450   -12.7180 hc         1 1RD       0.079033
     70 H35         -4.0260    11.8480   -12.3510 hc         1 1RD       0.079033
     71 H36         -3.1750    10.9800   -11.0110 hc         1 1RD       0.079033
     72 H212        -0.4720    -2.9960     0.1070 hn         1 1RD       0.483300
     73 H162        -0.0350     0.9100    -5.4570 hn         1 1RD       0.472800
     74 H122        -1.7610     5.1600    -5.8620 hn         1 1RD       0.371500
     75 H081        -4.2730     5.1720    -8.3310 hn         1 1RD       0.484800
@<TRIPOS>BOND
     1     1     2 2   
     2     2     3 1   
     3     2    10 1   
     4     3     4 1   
     5     4     5 1   
     6     4    36 1   
     7     4    37 1   
     8     5     6 1   
     9     5     9 2   
    10     6     7 1   
    11     7     8 2   
    12     7    38 1   
    13     8     9 1   
    14     9    39 1   
    15    10    11 1   
    16    10    40 1   
    17    10    72 1   
    18    11    12 1   
    19    11    41 1   
    20    11    42 1   
    21    12    13 1   
    22    12    43 1   
    23    12    44 1   
    24    13    14 1   
    25    13    45 1   
    26    13    46 1   
    27    14    15 1   
    28    14    47 1   
    29    14    48 1   
    30    15    16 1   
    31    15    49 1   
    32    15    73 1   
    33    16    17 2   
    34    16    18 1   
    35    18    19 1   
    36    18    22 1   
    37    18    50 1   
    38    19    20 1   
    39    19    21 1   
    40    19    51 1   
    41    20    52 1   
    42    20    53 1   
    43    20    54 1   
    44    21    55 1   
    45    21    56 1   
    46    21    57 1   
    47    22    23 1   
    48    22    74 1   
    49    23    24 2   
    50    23    25 1   
    51    25    26 1   
    52    25    27 1   
    53    25    75 1   
    54    26    59 1   
    55    26    60 1   
    56    26    61 1   
    57    27    28 1   
    58    27    62 1   
    59    27    63 1   
    60    28    29 1   
    61    28    30 2   
    62    29    32 2   
    63    29    58 1   
    64    30    31 1   
    65    30    64 1   
    66    31    32 1   
    67    32    33 1   
    68    33    34 1   
    69    33    35 1   
    70    33    65 1   
    71    34    66 1   
    72    34    67 1   
    73    34    68 1   
    74    35    69 1   
    75    35    70 1   
    76    35    71 1   
@<TRIPOS>SUBSTRUCTURE
     1 1RD         1 TEMP              0 ****  ****    0 ROOT
