@<TRIPOS>MOLECULE
molecule
   71    72     1     0     0
SMALL
bcc


@<TRIPOS>ATOM
      1 O23          0.0000     0.0000     0.0000 o          1 1RD      -0.612000
      2 C22          1.2150     0.0000     0.0000 c          1 1RD       0.750100
      3 O24          1.8880     0.0000     1.1660 os         1 1RD      -0.440900
      4 C25          1.0970    -0.0000     2.3830 c3         1 1RD       0.254700
      5 C26          2.0150    -0.0000     3.5790 cc         1 1RD      -0.162700
      6 S30          2.6460    -1.4260     4.4020 ss         1 1RD      -0.194300
      7 C29          3.4910    -0.4260     5.5010 cc         1 1RD       0.447300
      8 N28          3.2800     0.8170     5.2270 nd         1 1RD      -0.681000
      9 C27          2.4990     1.0800     4.2000 cd         1 1RD       0.390200
     10 N21          1.8900    -0.0060    -1.1670 ns         1 1RD      -0.574900
     11 C20          1.1570    -0.0120    -2.4360 c3         1 1RD       0.132000
     12 C19          2.1510    -0.0180    -3.5980 c3         1 1RD      -0.099400
     13 C18          1.3870    -0.0240    -4.9240 c3         1 1RD      -0.097400
     14 C17          2.3820    -0.0310    -6.0860 c3         1 1RD       0.112000
     15 N16          1.6490    -0.0370    -7.3550 ns         1 1RD      -0.584900
     16 C14          2.3240    -0.0420    -8.5220 c          1 1RD       0.655100
     17 O15          3.5330     0.0450    -8.5240 o          1 1RD      -0.616100
     18 C13          1.5740    -0.1570    -9.8240 c3         1 1RD       0.069700
     19 C31          1.3800    -1.6350   -10.1720 c3         1 1RD      -0.084700
     20 C33          0.5380    -2.3070    -9.0870 c3         1 1RD      -0.090100
     21 C32          0.6630    -1.7520   -11.5200 c3         1 1RD      -0.090100
     22 N12          2.3400     0.4980   -10.8880 ns         1 1RD      -0.590900
     23 C10          1.7070     0.9720   -11.9800 c          1 1RD       0.789100
     24 O11          0.5010     0.8550   -12.0820 o          1 1RD      -0.648100
     25 N08          2.4110     1.5750   -12.9580 n          1 1RD      -0.506800
     26 C09          3.8640     1.7160   -12.8340 c3         1 1RD       0.090300
     27 C07          1.7230     2.0890   -14.1440 c3         1 1RD       0.105700
     28 C06          1.3110     3.5190   -13.9060 cd         1 1RD       0.351600
     29 N05          0.1900     3.8450   -13.2950 nd         1 1RD      -0.655000
     30 C34          2.0560     4.5600   -14.2910 cc         1 1RD      -0.189400
     31 S35          1.2160     6.0340   -13.8130 ss         1 1RD      -0.224300
     32 C04         -0.0550     5.1040   -13.1480 cc         1 1RD       0.459700
     33 C02         -1.2810     5.6710   -12.4810 c3         1 1RD      -0.098000
     34 C03         -0.8610     6.5110   -11.2730 c3         1 1RD      -0.090100
     35 C01         -2.0420     6.5520   -13.4740 c3         1 1RD      -0.090100
     36 H1           0.4720    -0.8850     2.4080 h1         1 1RD       0.065200
     37 H2           0.4720     0.8840     2.4080 h1         1 1RD       0.065200
     38 H3           4.1120    -0.7850     6.3140 h5         1 1RD       0.063100
     39 H4           2.2610     2.0910     3.8890 h4         1 1RD       0.049100
     40 H5           2.8900    -0.0300    -1.1670 hn         1 1RD       0.325500
     41 H6           0.5340    -0.8970    -2.4890 h1         1 1RD       0.056200
     42 H7           0.5350     0.8720    -2.4980 h1         1 1RD       0.056200
     43 H8           2.7750     0.8660    -3.5440 hc         1 1RD       0.052200
     44 H9           2.7730    -0.9030    -3.5360 hc         1 1RD       0.052200
     45 H10          0.7630    -0.9080    -4.9770 hc         1 1RD       0.051700
     46 H11          0.7650     0.8610    -4.9860 hc         1 1RD       0.051700
     47 H12          3.0050     0.8540    -6.0330 h1         1 1RD       0.054700
     48 H13          3.0040    -0.9150    -6.0240 h1         1 1RD       0.054700
     49 H14          0.6500     0.0140    -7.3550 hn         1 1RD       0.319500
     50 H15          0.6070     0.3210    -9.7280 h1         1 1RD       0.086700
     51 H16          2.3460    -2.1220   -10.2330 hc         1 1RD       0.059700
     52 H17          1.1790    -2.6050    -8.2650 hc         1 1RD       0.040533
     53 H18         -0.2110    -1.6120    -8.7270 hc         1 1RD       0.040533
     54 H19          0.0490    -3.1820    -9.4990 hc         1 1RD       0.040533
     55 H20         -0.1970    -1.0940   -11.5290 hc         1 1RD       0.040533
     56 H21          1.3420    -1.4700   -12.3150 hc         1 1RD       0.040533
     57 H22          0.3380    -2.7740   -11.6680 hc         1 1RD       0.040533
     58 H23          3.3280     0.6240   -10.7880 hn         1 1RD       0.331500
     59 H24          4.3130     0.7370   -12.7160 h1         1 1RD       0.039367
     60 H25          4.2580     2.1890   -13.7250 h1         1 1RD       0.039367
     61 H26          4.0950     2.3250   -11.9690 h1         1 1RD       0.039367
     62 H27          0.8440     1.4880   -14.3410 h1         1 1RD       0.073200
     63 H28          2.3900     2.0430   -14.9960 h1         1 1RD       0.073200
     64 H29          3.0090     4.5070   -14.8030 h4         1 1RD       0.175000
     65 H30         -1.9210     4.8610   -12.1530 hc         1 1RD       0.086700
     66 H31         -0.2840     5.8990   -10.5900 hc         1 1RD       0.041033
     67 H32         -1.7440     6.8820   -10.7660 hc         1 1RD       0.041033
     68 H33         -0.2580     7.3470   -11.6060 hc         1 1RD       0.041033
     69 H34         -2.2680     5.9790   -14.3650 hc         1 1RD       0.041033
     70 H35         -2.9640     6.8940   -13.0210 hc         1 1RD       0.041033
     71 H36         -1.4320     7.4070   -13.7400 hc         1 1RD       0.041033
@<TRIPOS>BOND
     1    31    30 1
     2    31    32 1
     3    30    28 2
     4    26    25 1
     5    33    32 1
     6    33    34 1
     7    33    35 1
     8    32    29 2
     9    28    29 1
    10    28    27 1
    11    25    27 1
    12    25    23 1
    13    24    23 2
    14    17    16 2
    15    23    22 1
    16    14    15 1
    17    14    13 1
    18    22    18 1
    19    16    15 1
    20    16    18 1
    21    13    12 1
    22    18    19 1
    23     1     2 2
    24     4     3 1
    25     4     5 1
    26    21    19 1
    27    12    11 1
    28    19    20 1
    29     2     3 1
    30     2    10 1
    31     9     5 2
    32     9     8 1
    33     5     6 1
    34    11    10 1
    35     8     7 2
    36     6     7 1
    37     4    36 1
    38     4    37 1
    39     7    38 1
    40     9    39 1
    41    10    40 1
    42    11    41 1
    43    11    42 1
    44    12    43 1
    45    12    44 1
    46    13    45 1
    47    13    46 1
    48    14    47 1
    49    14    48 1
    50    15    49 1
    51    18    50 1
    52    19    51 1
    53    20    52 1
    54    20    53 1
    55    20    54 1
    56    21    55 1
    57    21    56 1
    58    21    57 1
    59    22    58 1
    60    26    59 1
    61    26    60 1
    62    26    61 1
    63    27    62 1
    64    27    63 1
    65    30    64 1
    66    33    65 1
    67    34    66 1
    68    34    67 1
    69    34    68 1
    70    35    69 1
    71    35    70 1
    72    35    71 1
@<TRIPOS>SUBSTRUCTURE
     1 1RD         1 TEMP              0 ****  ****    0 ROOT
