@<TRIPOS>MOLECULE
1RE
   62    64     1     0     0
SMALL
bcc


@<TRIPOS>ATOM
      1 CAC         -0.2120     0.9640     0.1640 c3         1 1RE      -0.094100
      2 CAY          0.9490    -0.0080     0.1830 c3         1 1RE      -0.063700
      3 CAB          1.2570    -0.4380     1.6030 c3         1 1RE      -0.094100
      4 CAF          2.1860     0.6040    -0.4560 c3         1 1RE      -0.112400
      5 CAJ          2.0420     0.7920    -1.9560 c3         1 1RE       0.126400
      6 OAW          1.5640     2.0970    -2.3020 os         1 1RE      -0.316900
      7 CBA          4.6290     4.1500    -1.8560 ca         1 1RE       0.202600
      8 CAH          4.1140     5.3960    -2.2870 ca         1 1RE      -0.210000
      9 CAG          2.7920     5.5020    -2.6950 ca         1 1RE      -0.043000
     10 CAZ          1.9460     4.3870    -2.7000 ca         1 1RE      -0.064000
     11 CBE          2.4570     3.1420    -2.2660 ca         1 1RE       0.184100
     12 CAI          3.7840     3.0250    -1.8330 ca         1 1RE      -0.205000
     13 CAE          0.6020     4.5140    -3.1340 cg         1 1RE       0.251800
     14 NAD         -0.5010     4.6160    -3.4900 n1         1 1RE      -0.366800
     15 NAR          8.2020     3.3500    -1.3610 nb         1 1RE      -0.856000
     16 CBB          6.8960     3.1410    -1.7970 ca         1 1RE       0.949900
     17 NAQ          6.4930     2.0650    -2.5720 nb         1 1RE      -0.848000
     18 CBC          7.4990     1.1770    -2.8720 ca         1 1RE       0.906300
     19 NAS          8.8210     1.2480    -2.4950 nb         1 1RE      -0.743000
     20 CBD          9.0860     2.3720    -1.7380 ca         1 1RE       0.915300
     21 OAU          7.2330     0.0600    -3.6300 os         1 1RE      -0.404100
     22 CAA          5.9070    -0.0850    -4.1480 c3         1 1RE       0.124700
     23 OAX         10.4070     2.4410    -1.3690 os         1 1RE      -0.412100
     24 CAM         10.8110     3.5800    -0.5790 c3         1 1RE       0.138400
     25 CAP         12.3120     3.3350    -0.3500 c3         1 1RE       0.158800
     26 NBF         12.9620     4.4940     0.2430 n3         1 1RE      -0.726600
     27 CAO         12.6110     4.6800     1.6450 c3         1 1RE       0.131300
     28 CAL         13.3620     5.8520     2.2880 c3         1 1RE       0.126400
     29 OAV         14.7670     5.7430     2.0970 os         1 1RE      -0.413600
     30 CAK         15.1140     5.6450     0.7210 c3         1 1RE       0.126400
     31 CAN         14.4070     4.4670     0.0410 c3         1 1RE       0.131300
     32 H1          -0.3780     1.3460    -0.8740 hc         1 1RE       0.038033
     33 H2          -0.0050     1.8360     0.8300 hc         1 1RE       0.038033
     34 H3          -1.1440     0.4620     0.5180 hc         1 1RE       0.038033
     35 H4           0.6580    -0.9230    -0.4080 hc         1 1RE       0.044700
     36 H5           0.3450    -0.8730     2.0790 hc         1 1RE       0.038033
     37 H6           2.0660    -1.2070     1.6140 hc         1 1RE       0.038033
     38 H7           1.5900     0.4360     2.2130 hc         1 1RE       0.038033
     39 H8           3.0660    -0.0660    -0.2650 hc         1 1RE       0.055700
     40 H9           2.4010     1.5930     0.0280 hc         1 1RE       0.055700
     41 H10          1.2330     0.1310    -2.3780 h1         1 1RE       0.063200
     42 H11          3.0070     0.5830    -2.4880 h1         1 1RE       0.063200
     43 H12          4.7540     6.2920    -2.3030 ha         1 1RE       0.143000
     44 H13          2.4010     6.4770    -3.0290 ha         1 1RE       0.150000
     45 H14          4.1570     2.0550    -1.4710 ha         1 1RE       0.166000
     46 H15          6.3250     4.9490    -1.0270 hn         1 1RE       0.458800
     47 H16          5.1650    -0.1700    -3.3180 h1         1 1RE       0.056367
     48 H17          5.9790    -1.0450    -4.7210 h1         1 1RE       0.056367
     49 H18          5.6510     0.7660    -4.8220 h1         1 1RE       0.056367
     50 H19         10.6250     4.5220    -1.1540 h1         1 1RE       0.064200
     51 H20         10.2400     3.5880     0.3840 h1         1 1RE       0.064200
     52 H21         12.7870     3.1260    -1.3500 h1         1 1RE       0.053200
     53 H22         12.4280     2.4070     0.2810 h1         1 1RE       0.053200
     54 H24         12.8150     3.7500     2.2520 h1         1 1RE       0.043200
     55 H25         11.5070     4.8930     1.6970 h1         1 1RE       0.043200
     56 H26         13.2280     5.8300     3.4020 h1         1 1RE       0.055200
     57 H27         13.0010     6.8300     1.8740 h1         1 1RE       0.055200
     58 H28         14.8680     6.6080     0.2020 h1         1 1RE       0.055200
     59 H29         16.2230     5.4780     0.7230 h1         1 1RE       0.055200
     60 H30         14.8610     3.5070     0.4240 h1         1 1RE       0.043200
     61 H31         14.6000     4.5260    -1.0670 h1         1 1RE       0.043200
     62 NAT          5.9540     4.0900    -1.3790 nu         1 1RE      -0.724300
@<TRIPOS>BOND
     1     1     2 1   
     2     1    32 1   
     3     1    33 1   
     4     1    34 1   
     5     2     3 1   
     6     2     4 1   
     7     2    35 1   
     8     3    36 1   
     9     3    37 1   
    10     3    38 1   
    11     4     5 1   
    12     4    39 1   
    13     4    40 1   
    14     5     6 1   
    15     5    41 1   
    16     5    42 1   
    17     6    11 1   
    18     7     8 ar  
    19     7    12 ar  
    20     7    62 1   
    21     8     9 ar  
    22     8    43 1   
    23     9    10 ar  
    24     9    44 1   
    25    10    11 ar  
    26    10    13 1   
    27    11    12 ar  
    28    12    45 1   
    29    13    14 3   
    30    15    16 ar  
    31    15    20 ar  
    32    16    17 ar  
    33    16    62 1   
    34    17    18 ar  
    35    18    19 ar  
    36    18    21 1   
    37    19    20 ar  
    38    20    23 1   
    39    21    22 1   
    40    22    47 1   
    41    22    48 1   
    42    22    49 1   
    43    23    24 1   
    44    24    25 1   
    45    24    50 1   
    46    24    51 1   
    47    25    26 1   
    48    25    52 1   
    49    25    53 1   
    50    26    27 1   
    51    26    31 1   
    52    27    28 1   
    53    27    54 1   
    54    27    55 1   
    55    28    29 1   
    56    28    56 1   
    57    28    57 1   
    58    29    30 1   
    59    30    31 1   
    60    30    58 1   
    61    30    59 1   
    62    31    60 1   
    63    31    61 1   
    64    46    62 1   
@<TRIPOS>SUBSTRUCTURE
     1 1RE         1 TEMP              0 ****  ****    0 ROOT
