@<TRIPOS>MOLECULE
1RE
   62    64     1     0     0
SMALL
bcc


@<TRIPOS>ATOM
      1 CAC         0.1700    0.1500    0.2100 c3        1 1RE     -0.092100
      2 CAY         1.6770    0.0660    0.3420 c3        1 1RE     -0.065700
      3 CAB         2.0740    0.0570    1.8040 c3        1 1RE     -0.092100
      4 CAF         2.1880   -1.1710   -0.3800 c3        1 1RE     -0.084400
      5 CAJ         3.6880   -1.0930   -0.6090 c3        1 1RE      0.128400
      6 OAW         4.0190   -2.2690   -1.3640 os        1 1RE     -0.318900
      7 CBA         7.6860   -1.7810   -1.7690 ca        1 1RE      0.202600
      8 CAH         7.9750   -2.9380   -2.5190 ca        1 1RE     -0.154000
      9 CAG         6.9520   -3.8120   -2.8700 ca        1 1RE     -0.048000
     10 CAZ         5.6300   -3.5800   -2.4800 ca        1 1RE     -0.063000
     11 CBE         5.3390   -2.4250   -1.7140 ca        1 1RE      0.188100
     12 CAI         6.3540   -1.5310   -1.3630 ca        1 1RE     -0.257000
     13 CAE         4.6030   -4.4870   -2.8460 cg        1 1RE      0.253800
     14 NAD         3.7610   -5.2310   -3.1460 n1        1 1RE     -0.369800
     15 NAR        10.4130    0.7010   -1.5980 nb        1 1RE     -0.800000
     16 CBB         9.6690   -0.3360   -2.1640 ca        1 1RE      0.929900
     17 NAQ         9.8530   -0.8440   -3.4440 nb        1 1RE     -0.786000
     18 CBC        10.8780   -0.2450   -4.1340 ca        1 1RE      0.917300
     19 NAS        11.6970    0.7680   -3.6960 nb        1 1RE     -0.868000
     20 CBD        11.4000    1.1850   -2.4160 ca        1 1RE      0.924300
     21 OAU        11.0340   -0.7780   -5.3940 os        1 1RE     -0.408100
     22 CAA        12.0700   -0.2300   -6.2150 c3        1 1RE      0.123700
     23 OAX        12.1130    2.2000   -1.8240 os        1 1RE     -0.407100
     24 CAM        13.1960    2.7740   -2.5850 c3        1 1RE      0.138400
     25 CAP        13.8120    3.8220   -1.6460 c3        1 1RE      0.167800
     26 NBF        14.8510    3.2740   -0.7920 n3        1 1RE     -0.734600
     27 CAO        16.1580    3.2470   -1.4340 c3        1 1RE      0.137800
     28 CAL        17.2500    2.6920   -0.5120 c3        1 1RE      0.126400
     29 OAV        17.2780    3.3740    0.7360 os        1 1RE     -0.415600
     30 CAK        16.0200    3.3270    1.3990 c3        1 1RE      0.126400
     31 CAN        14.8950    3.8940    0.5250 c3        1 1RE      0.137800
     32 H1         -0.2140    1.0520    0.7450 hc        1 1RE      0.036700
     33 H2         -0.1250    0.2220   -0.8650 hc        1 1RE      0.036700
     34 H3         -0.3120   -0.7550    0.6500 hc        1 1RE      0.036700
     35 H4          2.1270    0.9780   -0.1450 hc        1 1RE      0.045700
     36 H5          3.1850    0.0420    1.9110 hc        1 1RE      0.036700
     37 H6          1.6820    0.9700    2.3140 hc        1 1RE      0.036700
     38 H7          1.6560   -0.8410    2.3190 hc        1 1RE      0.036700
     39 H8          1.9480   -2.0910    0.2120 hc        1 1RE      0.063200
     40 H9          1.6760   -1.2710   -1.3730 hc        1 1RE      0.063200
     41 H10         3.9630   -0.1810   -1.2000 h1        1 1RE      0.041700
     42 H11         4.2510   -1.1050    0.3610 h1        1 1RE      0.041700
     43 H12         9.0030   -3.1670   -2.8380 ha        1 1RE      0.168000
     44 H13         7.1890   -4.7100   -3.4640 ha        1 1RE      0.151000
     45 H14         6.1170   -0.6340   -0.7730 ha        1 1RE      0.145000
     46 H15         8.4850   -0.3820   -0.5000 hn        1 1RE      0.457800
     47 H16        11.8860    0.8530   -6.4120 h1        1 1RE      0.056700
     48 H17        13.0700   -0.3840   -5.7440 h1        1 1RE      0.056700
     49 H18        11.9720   -0.8310   -7.1550 h1        1 1RE      0.056700
     50 H19        13.9210    1.9750   -2.8810 h1        1 1RE      0.061200
     51 H20        12.7760    3.2760   -3.4940 h1        1 1RE      0.061200
     52 H21        14.2000    4.6600   -2.2970 h1        1 1RE      0.053700
     53 H22        12.9830    4.2390   -1.0040 h1        1 1RE      0.053700
     54 H24        16.0820    2.5850   -2.3410 h1        1 1RE      0.040700
     55 H25        16.4740    4.2750   -1.7790 h1        1 1RE      0.040700
     56 H26        17.1020    1.5940   -0.3380 h1        1 1RE      0.055700
     57 H27        18.2630    2.8800   -0.9570 h1        1 1RE      0.055700
     58 H28        15.7930    2.2700    1.6990 h1        1 1RE      0.055700
     59 H29        16.1600    3.9660    2.3090 h1        1 1RE      0.055700
     60 H30        15.0280    5.0130    0.4530 h1        1 1RE      0.040700
     61 H31        13.9120    3.6890    1.0340 h1        1 1RE      0.040700
     62 NAT         8.6940   -0.8980   -1.3310 nh        1 1RE     -0.720300
@<TRIPOS>BOND
     1    1    2 1   
     2    1   32 1   
     3    1   33 1   
     4    1   34 1   
     5    2    3 1   
     6    2    4 1   
     7    2   35 1   
     8    3   36 1   
     9    3   37 1   
    10    3   38 1   
    11    4    5 1   
    12    4   39 1   
    13    4   40 1   
    14    5    6 1   
    15    5   41 1   
    16    5   42 1   
    17    6   11 1   
    18    7    8 ar  
    19    7   12 ar  
    20    7   62 1   
    21    8    9 ar  
    22    8   43 1   
    23    9   10 ar  
    24    9   44 1   
    25   10   11 ar  
    26   10   13 1   
    27   11   12 ar  
    28   12   45 1   
    29   13   14 3   
    30   15   16 ar  
    31   15   20 ar  
    32   16   17 ar  
    33   16   62 1   
    34   17   18 ar  
    35   18   19 ar  
    36   18   21 1   
    37   19   20 ar  
    38   20   23 1   
    39   21   22 1   
    40   22   47 1   
    41   22   48 1   
    42   22   49 1   
    43   23   24 1   
    44   24   25 1   
    45   24   50 1   
    46   24   51 1   
    47   25   26 1   
    48   25   52 1   
    49   25   53 1   
    50   26   27 1   
    51   26   31 1   
    52   27   28 1   
    53   27   54 1   
    54   27   55 1   
    55   28   29 1   
    56   28   56 1   
    57   28   57 1   
    58   29   30 1   
    59   30   31 1   
    60   30   58 1   
    61   30   59 1   
    62   31   60 1   
    63   31   61 1   
    64   46   62 1   
@<TRIPOS>SUBSTRUCTURE
     1 1RE         1 TEMP              0 ****  ****    0 ROOT
