@<TRIPOS>MOLECULE
molecule
   62    64     1     0     0
SMALL
bcc


@<TRIPOS>ATOM
      1 CAC          0.0000     0.0000     0.0000 c3         1 1RE      -0.175600
      2 CAY          1.5300     0.0000     0.0000 c3         1 1RE      -0.491700
      3 CAB          2.0410     0.0000     1.4420 c3         1 1RE      -0.175600
      4 CAF          2.0400    -1.2500    -0.7200 c3         1 1RE      -0.127400
      5 CAJ          3.5650    -1.1890    -0.8310 c3         1 1RE      -0.317600
      6 OAW          4.0410    -2.3560    -1.5040 os         1 1RE      -0.384900
      7 CBA          7.5940    -1.5680    -1.4140 ca         1 1RE       0.219600
      8 CAH          8.1300    -2.6800    -2.0620 ca         1 1RE      -0.199000
      9 CAG          7.3030    -3.6770    -2.5220 ca         1 1RE      -0.030000
     10 CAZ          5.9200    -3.5790    -2.3390 ca         1 1RE      -0.108000
     11 CBE          5.3810    -2.4600    -1.6850 ca         1 1RE       0.270100
     12 CAI          6.2230    -1.4610    -1.2270 ca         1 1RE      -0.229000
     13 CAE          5.0560    -4.6160    -2.8170 cg         1 1RE       0.257800
     14 NAD          4.3820    -5.4400    -3.2130 n1         1 1RE      -0.385800
     15 NAR         10.0620     0.0170     0.7680 nb         1 1RE      -0.819000
     16 CBB          9.7770    -0.7020    -0.2190 ca         1 1RE       1.074900
     17 NAQ         10.5600    -1.1530    -0.8340 nb         1 1RE      -0.880000
     18 CBC         11.7800    -1.0320    -0.6630 ca         1 1RE       1.081300
     19 NAS         12.2430    -0.4670     0.1130 nb         1 1RE      -0.840000
     20 CBD         11.5410     0.2290     1.0640 ca         1 1RE       0.945300
     21 OAU         12.9430    -1.5370    -1.5640 os         1 1RE      -0.516100
     22 CAA         14.0360    -2.2290    -1.1320 c3         1 1RE       0.137700
     23 OAX         12.0950     0.9550     2.1360 os         1 1RE      -0.241100
     24 CAM         13.0040     1.6930     1.5860 c3         1 1RE       0.029400
     25 CAP         13.8040     2.3280     3.2770 c3         1 1RE       0.100800
     26 NBF         12.9340     1.6190     4.3930 n3         1 1RE      -0.624600
     27 CAO         13.5240     0.8560     4.9980 c3         1 1RE       0.131800
     28 CAL         12.9030     0.3340     5.8110 c3         1 1RE       0.092400
     29 OAV         12.5080     1.2800     6.8580 os         1 1RE      -0.466600
     30 CAK         11.5930     2.2150     6.3670 c3         1 1RE       0.092400
     31 CAN         12.6870     2.7220     5.2080 c3         1 1RE       0.131800
     32 H1          -0.1670    -1.0200     0.3250 hc         1 1RE       0.074367
     33 H2          -0.2130    -0.4830    -0.9460 hc         1 1RE       0.074367
     34 H3          -0.4680     0.9560     0.2050 hc         1 1RE       0.074367
     35 H4           1.0420     0.6240     0.7390 hc         1 1RE       0.376700
     36 H5           2.9030    -0.6270     1.2520 hc         1 1RE       0.074367
     37 H6           1.4140    -0.8410     1.7120 hc         1 1RE       0.074367
     38 H7           1.8600     0.9770     1.8730 hc         1 1RE       0.074367
     39 H8           1.3620    -1.6220    -1.4790 hc         1 1RE       0.080700
     40 H9           2.5350    -1.9570    -0.0650 hc         1 1RE       0.080700
     41 H10          3.2020    -2.1520    -1.1690 h1         1 1RE       0.268200
     42 H11          3.2580    -0.1780    -1.0720 h1         1 1RE       0.268200
     43 H12          9.1870    -2.7150    -1.8290 ha         1 1RE       0.169000
     44 H13          7.7500    -4.5400    -3.0010 ha         1 1RE       0.147000
     45 H14          5.8580    -0.5090    -0.8600 ha         1 1RE       0.167000
     46 H15          8.0830     0.3700    -0.8930 hn         1 1RE       0.438800
     47 H16         14.6990    -1.3770    -1.0390 h1         1 1RE       0.037367
     48 H17         13.7340    -2.1900    -0.0930 h1         1 1RE       0.037367
     49 H18         14.4440    -3.2190    -1.2980 h1         1 1RE       0.037367
     50 H19         12.9430     2.7240     1.2580 h1         1 1RE       0.072700
     51 H20         13.9490     1.3140     1.2180 h1         1 1RE       0.072700
     52 H21         14.7470     1.8210     3.4400 h1         1 1RE       0.069200
     53 H22         13.8450     3.4010     3.1330 h1         1 1RE       0.069200
     54 H24         13.7820     0.0800     4.2870 h1         1 1RE       0.037700
     55 H25         14.5280     1.1210     5.3070 h1         1 1RE       0.037700
     56 H26         12.1890    -0.4800     5.7750 h1         1 1RE       0.071200
     57 H27         13.4600    -0.4000     6.3800 h1         1 1RE       0.071200
     58 H28         10.8330     1.4990     6.0750 h1         1 1RE       0.071200
     59 H29         11.6310     3.0370     7.0720 h1         1 1RE       0.071200
     60 H30         13.5040     3.0550     5.8370 h1         1 1RE       0.037700
     61 H31         11.9420     3.3230     4.7020 h1         1 1RE       0.037700
     62 NAT          8.4400    -0.5630    -0.9460 nu         1 1RE      -0.823300
@<TRIPOS>BOND
     1    28    29 1
     2    28    27 1
     3    29    30 1
     4    30    31 1
     5    27    26 1
     6    26    31 1
     7    26    25 1
     8    25    24 1
     9    24    23 1
    10    23    20 1
    11    15    20 ar
    12    15    16 ar
    13     8     9 ar
    14     8     7 ar
    15    62    16 1
    16    62     7 1
    17    20    19 ar
    18    16    17 ar
    19     9    10 ar
    20     7    12 ar
    21    19    18 ar
    22    17    18 ar
    23    10    13 1
    24    10    11 ar
    25    12    11 ar
    26    18    21 1
    27    13    14 3
    28    11     6 1
    29    21    22 1
    30     6     5 1
    31     3     2 1
    32     5     4 1
    33     4     2 1
    34     2     1 1
    35     1    32 1
    36     1    33 1
    37     1    34 1
    38     2    35 1
    39     3    36 1
    40     3    37 1
    41     3    38 1
    42     4    39 1
    43     4    40 1
    44     5    41 1
    45     5    42 1
    46     8    43 1
    47     9    44 1
    48    12    45 1
    49    62    46 1
    50    22    47 1
    51    22    48 1
    52    22    49 1
    53    24    50 1
    54    24    51 1
    55    25    52 1
    56    25    53 1
    57    27    54 1
    58    27    55 1
    59    28    56 1
    60    28    57 1
    61    30    58 1
    62    30    59 1
    63    31    60 1
    64    31    61 1
@<TRIPOS>SUBSTRUCTURE
     1 1RE         1 TEMP              0 ****  ****    0 ROOT
