@<TRIPOS>MOLECULE
1RG
   58    60     1     0     0
SMALL
bcc


@<TRIPOS>ATOM
      1 C           -0.5310    -0.3000    -0.4090 c          1 1RG       0.670100
      2 N            0.4690     1.8270    -1.2260 n7         1 1RG      -0.799200
      3 O           -0.8330    -0.6760    -1.5600 o          1 1RG      -0.619100
      4 CA           0.5730     0.7620    -0.2190 c3         1 1RG       0.100500
      5 CB           0.6400     1.4580     1.1580 c3         1 1RG      -0.077400
      6 CD           0.9380     3.0740    -0.6230 c3         1 1RG       0.158800
      7 CG           1.2660     2.8170     0.8590 c3         1 1RG      -0.042600
      8 CAB          3.1460     6.3800     5.7860 c3         1 1RG      -0.190700
      9 CAD          3.0990     5.2280     4.7740 c3         1 1RG       0.167500
     10 CAE          2.5840     5.8910     7.1320 c3         1 1RG       0.151100
     11 CAF          3.6500     5.3300     8.0570 c3         1 1RG      -0.139100
     12 OAG          1.9380     7.0120     7.7300 oh         1 1RG      -0.596800
     13 CAH          1.6670     4.8550     4.2630 c3         1 1RG      -0.014500
     14 CAI          1.8850     4.6720     2.7720 c2         1 1RG      -0.188600
     15 NAJ          3.9400     5.3920     3.5760 nu         1 1RG      -0.703000
     16 SAK          0.5930     4.1030     1.8700 ss         1 1RG      -0.203700
     17 CAL          3.1490     5.0740     2.4370 ce         1 1RG       0.079800
     18 CAM          3.8100     5.2480     1.0650 c          1 1RG       0.931800
     19 OAT          3.8230     4.2680     0.2750 o          1 1RG      -0.814300
     20 OAU          4.3170     6.3800     0.8400 o          1 1RG      -0.814300
     21 NAX         -1.0760    -0.8570     0.7300 ns         1 1RG      -0.466100
     22 CAY         -2.0020    -1.9210     0.8010 ca         1 1RG       0.029600
     23 CAZ         -2.1550    -2.5990     2.0350 ca         1 1RG      -0.152000
     24 CBA         -3.0660    -3.6440     2.1660 ca         1 1RG      -0.109600
     25 CBB         -3.8410    -4.0280     1.0660 ca         1 1RG      -0.131000
     26 CBC         -3.6990    -3.3670    -0.1490 ca         1 1RG      -0.151000
     27 CBD         -2.7920    -2.3180    -0.2950 ca         1 1RG      -0.168000
     28 CBE         -3.2180    -4.3680     3.4950 c          1 1RG       0.907200
     29 OBF         -4.0580    -5.3110     3.5670 o          1 1RG      -0.838300
     30 OBG         -2.4990    -3.9960     4.4660 o          1 1RG      -0.838300
     31 HN           0.9970     1.5820    -2.0390 hn         1 1RG       0.358800
     32 HA           1.5300     0.1680    -0.3500 h1         1 1RG       0.039700
     33 HB          -0.3790     1.6030     1.5970 hc         1 1RG       0.055200
     34 HBA          1.2590     0.8640     1.8710 hc         1 1RG       0.055200
     35 HD           0.1010     3.8210    -0.7140 h1         1 1RG       0.066200
     36 HDA          1.8470     3.4960    -1.1350 h1         1 1RG       0.066200
     37 HG           2.3820     2.7940     0.9850 h1         1 1RG       0.134700
     38 HAB          2.5110     7.2390     5.4290 hc         1 1RG       0.107700
     39 HAD          3.5190     4.3160     5.2990 h1         1 1RG       0.043700
     40 HAE          1.8120     5.0910     6.9330 h1         1 1RG       0.051700
     41 HAF          4.2180     4.5230     7.5380 hc         1 1RG       0.043367
     42 HAFA         3.1750     4.9020     8.9730 hc         1 1RG       0.043367
     43 HAFB         4.3590     6.1330     8.3730 hc         1 1RG       0.043367
     44 HOAG         1.5670     6.7010     8.5620 ho         1 1RG       0.391000
     45 HAH          1.3700     3.8830     4.7380 hc         1 1RG       0.051700
     46 HNAJ         4.3940     6.2790     3.4840 hn         1 1RG       0.396800
     47 HNAX        -0.7360    -0.5410     1.6110 hn         1 1RG       0.315500
     48 HAZ         -1.5630    -2.3240     2.9240 ha         1 1RG       0.150000
     49 HBB         -4.5540    -4.8580     1.1920 ha         1 1RG       0.145000
     50 HBC         -4.3070    -3.6680    -1.0140 ha         1 1RG       0.101000
     51 HBD         -2.6960    -1.8130    -1.2670 ha         1 1RG       0.148000
     52 CAA          4.5620     6.8690     5.9680 c          1 1RG       0.576900
     53 OAC          4.8540     8.0530     6.1370 o          1 1RG      -0.538100
     54 HAA          5.3450     6.0770     5.9400 h4         1 1RG      -0.000800
     55 CAS          0.5900     5.8810     4.5180 c3         1 1RG      -0.090100
     56 HAS          0.8450     6.8550     4.0350 hc         1 1RG       0.034367
     57 HASA         0.4420     6.0540     5.6120 hc         1 1RG       0.034367
     58 HASB        -0.3730     5.5180     4.0790 hc         1 1RG       0.034367
@<TRIPOS>BOND
     1     1     3 2   
     2     1     4 1   
     3     1    21 1   
     4     2     4 1   
     5     2     6 1   
     6     2    31 1   
     7     4     5 1   
     8     4    32 1   
     9     5     7 1   
    10     5    33 1   
    11     5    34 1   
    12     6     7 1   
    13     6    35 1   
    14     6    36 1   
    15     7    16 1   
    16     7    37 1   
    17     8     9 1   
    18     8    10 1   
    19     8    38 1   
    20     8    52 1   
    21     9    13 1   
    22     9    15 1   
    23     9    39 1   
    24    10    11 1   
    25    10    12 1   
    26    10    40 1   
    27    11    41 1   
    28    11    42 1   
    29    11    43 1   
    30    12    44 1   
    31    13    14 1   
    32    13    45 1   
    33    13    55 1   
    34    14    16 1   
    35    14    17 2   
    36    15    17 1   
    37    15    46 1   
    38    17    18 1   
    39    18    19 1   
    40    18    20 1   
    41    21    22 1   
    42    21    47 1   
    43    22    23 ar  
    44    22    27 ar  
    45    23    24 ar  
    46    23    48 1   
    47    24    25 ar  
    48    24    28 1   
    49    25    26 ar  
    50    25    49 1   
    51    26    27 ar  
    52    26    50 1   
    53    27    51 1   
    54    28    29 1   
    55    28    30 1   
    56    52    53 2   
    57    52    54 1   
    58    55    56 1   
    59    55    57 1   
    60    55    58 1   
@<TRIPOS>SUBSTRUCTURE
     1 1RG         1 TEMP              0 ****  ****    0 ROOT
