@<TRIPOS>MOLECULE
1RG
   58    60     1     0     0
SMALL
bcc


@<TRIPOS>ATOM
      1 C            0.0000     0.0000     0.0000 c          1 1RG       0.544100
      2 N            2.0230     1.2510    -0.5930 n7         1 1RG      -0.605200
      3 O           -0.6050     1.0440    -0.1260 o          1 1RG      -0.603100
      4 CA           1.5080     0.0000     0.0000 c3         1 1RG       0.045500
      5 CB           2.0460     0.0000     1.4530 c3         1 1RG      -0.017400
      6 CD           3.2320     1.6590     0.1460 c3         1 1RG       0.138800
      7 CG           3.4550     0.6190     1.2650 c3         1 1RG       0.024400
      8 CAB          9.1150     1.5130     2.5710 c3         1 1RG      -0.225700
      9 CAD          7.9560     1.8180     1.6200 c3         1 1RG       0.144500
     10 CAE         10.3560     2.2900     2.1270 c3         1 1RG       0.204100
     11 CAF         10.7390     1.8720     0.7060 c3         1 1RG      -0.037100
     12 OAG         10.0750     3.6910     2.1510 oh         1 1RG      -0.573800
     13 CAH          6.7490     0.9160     1.9390 c3         1 1RG       0.032500
     14 CAI          5.6460     1.8780     2.3170 c2         1 1RG      -0.190600
     15 NAJ          7.4650     3.1850     1.8330 nu         1 1RG      -0.420000
     16 SAK          4.0100     1.4270     2.7860 ss         1 1RG      -0.288700
     17 CAL          6.1190     3.1360     2.2350 ce         1 1RG       0.064800
     18 CAM          5.3440     4.2840     2.5210 c          1 1RG       0.944800
     19 OAT          4.2140     4.1630     2.9550 o          1 1RG      -0.858800
     20 OAU          5.8590     5.5150     2.3140 o          1 1RG      -0.858800
     21 NAX         -0.6740    -1.1580     0.1440 ns         1 1RG      -0.031100
     22 CAY         -2.0690    -1.1460     0.2520 ca         1 1RG      -0.134400
     23 CAZ         -2.8120    -0.2190    -0.4610 ca         1 1RG      -0.072000
     24 CBA         -4.2020    -0.2110    -0.3500 ca         1 1RG      -0.091600
     25 CBB         -4.8370    -1.1390     0.4800 ca         1 1RG      -0.080000
     26 CBC         -4.0880    -2.0570     1.1870 ca         1 1RG      -0.137000
     27 CBD         -2.7100    -2.0670     1.0720 ca         1 1RG      -0.162000
     28 CBE         -5.0030     0.7740    -1.1080 c          1 1RG       0.976200
     29 OBF         -6.3450     0.7790    -0.9980 o          1 1RG      -0.886800
     30 OBG         -4.4480     1.5780    -1.8290 o          1 1RG      -0.886800
     31 HN           1.3290     1.9680    -0.5170 hn         1 1RG       0.297800
     32 HA           1.8910    -0.8570    -0.5410 h1         1 1RG       0.025700
     33 HB           2.1160    -1.0100     1.8380 hc         1 1RG       0.030700
     34 HBA          1.4320     0.6250     2.0910 hc         1 1RG       0.030700
     35 HD           4.0850     1.6700    -0.5220 h1         1 1RG       0.039200
     36 HDA          3.0840     2.6400     0.5800 h1         1 1RG       0.039200
     37 HG           4.1630    -0.1370     0.9450 h1         1 1RG       0.031700
     38 HAB          9.3280     0.4510     2.5530 hc         1 1RG       0.066700
     39 HAD          8.2610     1.6850     0.5890 h1         1 1RG       0.019700
     40 HAE         11.1770     2.0750     2.8000 h1         1 1RG      -0.011300
     41 HAF         10.1930     2.4760    -0.0080 hc         1 1RG       0.011033
     42 HAFA        10.4920     0.8270     0.5590 hc         1 1RG       0.011033
     43 HAFB        11.8030     2.0150     0.5620 hc         1 1RG       0.011033
     44 HOAG        10.8640     4.1670     2.3500 ho         1 1RG       0.382000
     45 HAH          6.4650     0.3450     1.0640 hc         1 1RG       0.016700
     46 HNAJ         8.0030     4.0200     1.7120 hn         1 1RG       0.340800
     47 HNAX        -0.1810    -2.0290     0.1260 hn         1 1RG       0.149500
     48 HAZ         -2.3140     0.4980    -1.1030 ha         1 1RG       0.163000
     49 HBB         -5.9160    -1.1350     0.5710 ha         1 1RG       0.124000
     50 HBC         -4.5810    -2.7760     1.8290 ha         1 1RG       0.078000
     51 HBD         -2.1270    -2.7900     1.6300 ha         1 1RG       0.082000
     52 CAA          8.7380     1.9260     3.9710 c          1 1RG       0.694900
     53 OAC          8.8340     1.1360     4.8790 o          1 1RG      -0.592100
     54 HAA          8.4460     2.9490     4.1730 h4         1 1RG      -0.001800
     55 CAS          7.0720    -0.0120     3.1120 c3         1 1RG      -0.049100
     56 HAS          6.3040    -0.7720     3.1930 hc         1 1RG       0.016700
     57 HASA         8.0320    -0.4860     2.9440 hc         1 1RG       0.016700
     58 HASB         7.1090     0.5630     4.0290 hc         1 1RG       0.016700
@<TRIPOS>BOND
     1     1     3 2   
     2     1     4 1   
     3     1    21 1   
     4     2     4 1   
     5     2     6 1   
     6     2    31 1   
     7     4     5 1   
     8     4    32 1   
     9     5     7 1   
    10     5    33 1   
    11     5    34 1   
    12     6     7 1   
    13     6    35 1   
    14     6    36 1   
    15     7    16 1   
    16     7    37 1   
    17     8     9 1   
    18     8    10 1   
    19     8    38 1   
    20     8    52 1   
    21     9    13 1   
    22     9    15 1   
    23     9    39 1   
    24    10    11 1   
    25    10    12 1   
    26    10    40 1   
    27    11    41 1   
    28    11    42 1   
    29    11    43 1   
    30    12    44 1   
    31    13    14 1   
    32    13    45 1   
    33    13    55 1   
    34    14    16 1   
    35    14    17 2   
    36    15    17 1   
    37    15    46 1   
    38    17    18 1   
    39    18    19 1   
    40    18    20 1   
    41    21    22 1   
    42    21    47 1   
    43    22    23 ar  
    44    22    27 ar  
    45    23    24 ar  
    46    23    48 1   
    47    24    25 ar  
    48    24    28 1   
    49    25    26 ar  
    50    25    49 1   
    51    26    27 ar  
    52    26    50 1   
    53    27    51 1   
    54    28    29 1   
    55    28    30 1   
    56    52    53 2   
    57    52    54 1   
    58    55    56 1   
    59    55    57 1   
    60    55    58 1   
@<TRIPOS>SUBSTRUCTURE
     1 1RG         1 TEMP              0 ****  ****    0 ROOT
