@<TRIPOS>MOLECULE
1RH
   76    80     1     0     0
SMALL
bcc


@<TRIPOS>ATOM
      1 C28         -0.2810     0.0830    -0.6100 c3         1 1RH       0.110700
      2 O27          1.1400    -0.0070    -0.7280 os         1 1RH      -0.354900
      3 C26          1.8800     0.3010     0.3950 ca         1 1RH       0.179100
      4 C25          1.2850     0.4430     1.6780 ca         1 1RH      -0.192000
      5 C24          2.0670     0.7590     2.7570 ca         1 1RH      -0.046000
      6 C23          3.4650     0.9710     2.6080 ca         1 1RH      -0.073000
      7 C37          4.2630     1.3350     3.7260 ca         1 1RH      -0.079000
      8 C38          5.6070     1.5770     3.5790 ca         1 1RH      -0.135000
      9 C39          6.2020     1.4700     2.3020 ca         1 1RH      -0.103000
     10 C40          5.4510     1.1140     1.2070 ca         1 1RH      -0.172000
     11 C22          4.0620     0.8360     1.3260 ca         1 1RH       0.021000
     12 C21          3.2540     0.4620     0.2100 ca         1 1RH      -0.185300
     13 C20          3.8290     0.3580    -1.1650 c3         1 1RH       0.139300
     14 N11          4.7510    -0.7770    -1.4110 n          1 1RH      -0.269000
     15 C9           5.9680    -0.4820    -1.9350 c          1 1RH       0.705500
     16 O10          6.3380     0.7300    -2.0690 o          1 1RH      -0.798500
     17 C7           6.9920    -1.5030    -2.4940 c3         1 1RH       0.052500
     18 C15          6.9840    -2.9020    -1.8300 c3         1 1RH       0.079000
     19 N6           8.3940    -0.9290    -2.3810 ny         1 1RH      -0.666800
     20 C5           8.4990     0.4500    -2.9300 c          1 1RH       0.553100
     21 O8           8.2310     0.6150    -4.1150 o          1 1RH      -0.426100
     22 C3           9.0340     1.5820    -2.0340 c3         1 1RH       0.091500
     23 C4           9.0490     1.2580    -0.5480 c3         1 1RH      -0.165100
     24 N2           8.2410     2.8400    -2.3070 ny         1 1RH      -0.758000
     25 C1           8.7290     3.5890    -3.4890 c3         1 1RH       0.068100
     26 C12          4.2710    -2.0740    -1.0480 ca         1 1RH      -0.011400
     27 C16          2.9140    -2.3930    -1.2560 ca         1 1RH      -0.106000
     28 C18          2.3840    -3.5930    -0.7870 ca         1 1RH      -0.097000
     29 C17          3.1820    -4.5030    -0.1000 ca         1 1RH      -0.099000
     30 C19          4.5410    -4.2450     0.0670 ca         1 1RH      -0.101000
     31 C13          5.1030    -3.0530    -0.4190 ca         1 1RH       0.009600
     32 N14          6.5130    -2.8870    -0.4730 n          1 1RH      -0.404000
     33 C29          7.3940    -2.5540     0.5670 c          1 1RH       0.753700
     34 O30          8.4930    -2.0500     0.1980 o          1 1RH      -0.725100
     35 C31          7.1120    -2.8320     1.9740 ca         1 1RH      -0.260600
     36 C32          8.2220    -3.1240     2.7960 ca         1 1RH      -0.009500
     37 C33          8.0600    -3.4190     4.1330 ca         1 1RH      -0.237000
     38 C34          6.7620    -3.4160     4.7240 ca         1 1RH       0.267600
     39 N41          6.5910    -3.6960     6.0460 nv         1 1RH      -0.849200
     40 C35          5.6520    -3.0880     3.8910 ca         1 1RH      -0.237000
     41 C36          5.8340    -2.8070     2.5500 ca         1 1RH      -0.009500
     42 H1          -0.6320    -0.0630    -1.6640 h1         1 1RH       0.061700
     43 H2          -0.5850     1.0870    -0.2270 h1         1 1RH       0.061700
     44 H3          -0.6650    -0.7310     0.0510 h1         1 1RH       0.061700
     45 H4           0.2010     0.2980     1.8010 ha         1 1RH       0.162000
     46 H5           1.6190     0.8660     3.7600 ha         1 1RH       0.158000
     47 H6           3.7790     1.4290     4.7120 ha         1 1RH       0.153000
     48 H7           6.2280     1.8590     4.4440 ha         1 1RH       0.152000
     49 H8           7.2780     1.6770     2.1990 ha         1 1RH       0.117000
     50 H9           5.9230     1.0590     0.2160 ha         1 1RH       0.103000
     51 H10          4.3770     1.3210    -1.3840 h1         1 1RH       0.090700
     52 H11          3.0010     0.2580    -1.9280 h1         1 1RH       0.090700
     53 H12          6.7630    -1.6020    -3.6010 hx         1 1RH       0.144700
     54 H13          6.3010    -3.5510    -2.4580 h1         1 1RH       0.108200
     55 H14          8.0120    -3.3690    -1.8610 h1         1 1RH       0.108200
     56 H15          9.0220    -1.5490    -2.9130 hn         1 1RH       0.495800
     57 H16         10.1010     1.7720    -2.3820 hx         1 1RH       0.144700
     58 H17          9.7660     0.4210    -0.3380 hc         1 1RH       0.105367
     59 H18          9.4090     2.1370     0.0480 hc         1 1RH       0.105367
     60 H19          8.0310     0.9710    -0.1740 hc         1 1RH       0.105367
     61 H20          8.3010     3.4380    -1.4710 hn         1 1RH       0.484300
     62 H22          8.0780     4.4970    -3.6320 hx         1 1RH       0.122367
     63 H23          9.7920     3.9150    -3.3260 hx         1 1RH       0.122367
     64 H24          8.6650     2.9360    -4.4040 hx         1 1RH       0.122367
     65 H25          2.2400    -1.6850    -1.7710 ha         1 1RH       0.175000
     66 H26          1.3180    -3.8160    -0.9630 ha         1 1RH       0.167000
     67 H27          2.7510    -5.4380     0.2930 ha         1 1RH       0.170000
     68 H28          5.1810    -4.9860     0.5760 ha         1 1RH       0.171000
     69 H29          9.2320    -3.1240     2.3530 ha         1 1RH       0.145500
     70 H30          8.9420    -3.6610     4.7470 ha         1 1RH       0.153000
     71 H31          5.6820    -3.7410     6.4340 hn         1 1RH       0.448300
     72 H32          7.3630    -3.9680     6.6030 hn         1 1RH       0.448300
     73 H33          4.6380    -3.0550     4.3180 ha         1 1RH       0.153000
     74 H34          4.9530    -2.5410     1.9430 ha         1 1RH       0.145500
     75 H62          8.6650    -0.9700    -1.3730 hn         1 1RH       0.495800
     76 H231         7.2450     2.5870    -2.4450 hn         1 1RH       0.484300
@<TRIPOS>BOND
     1     1     2 1   
     2     1    42 1   
     3     1    43 1   
     4     1    44 1   
     5     2     3 1   
     6     3     4 ar  
     7     3    12 ar  
     8     4     5 ar  
     9     4    45 1   
    10     5     6 ar  
    11     5    46 1   
    12     6     7 ar  
    13     6    11 ar  
    14     7     8 ar  
    15     7    47 1   
    16     8     9 ar  
    17     8    48 1   
    18     9    10 ar  
    19     9    49 1   
    20    10    11 ar  
    21    10    50 1   
    22    11    12 ar  
    23    12    13 1   
    24    13    14 1   
    25    13    51 1   
    26    13    52 1   
    27    14    15 1   
    28    14    26 1   
    29    15    16 2   
    30    15    17 1   
    31    17    18 1   
    32    17    19 1   
    33    17    53 1   
    34    18    32 1   
    35    18    54 1   
    36    18    55 1   
    37    19    20 1   
    38    19    56 1   
    39    19    75 1   
    40    20    21 2   
    41    20    22 1   
    42    22    23 1   
    43    22    24 1   
    44    22    57 1   
    45    23    58 1   
    46    23    59 1   
    47    23    60 1   
    48    24    25 1   
    49    24    61 1   
    50    24    76 1   
    51    25    62 1   
    52    25    63 1   
    53    25    64 1   
    54    26    27 ar  
    55    26    31 ar  
    56    27    28 ar  
    57    27    65 1   
    58    28    29 ar  
    59    28    66 1   
    60    29    30 ar  
    61    29    67 1   
    62    30    31 ar  
    63    30    68 1   
    64    31    32 1   
    65    32    33 1   
    66    33    34 2   
    67    33    35 1   
    68    35    36 ar  
    69    35    41 ar  
    70    36    37 ar  
    71    36    69 1   
    72    37    38 ar  
    73    37    70 1   
    74    38    39 1   
    75    38    40 ar  
    76    39    71 1   
    77    39    72 1   
    78    40    41 ar  
    79    40    73 1   
    80    41    74 1   
@<TRIPOS>SUBSTRUCTURE
     1 1RH         1 TEMP              0 ****  ****    0 ROOT
