@<TRIPOS>MOLECULE
1RH
   74    78     1     0     0
SMALL
bcc


@<TRIPOS>ATOM
      1 C28          0.0000     0.0000     0.0000 c3         1 1RH       0.232700
      2 O27          1.4290     0.0000     0.0000 os         1 1RH      -0.269900
      3 C26          2.0460     0.0000     1.2100 ca         1 1RH       0.177100
      4 C25          1.2760    -0.0070     2.3770 ca         1 1RH      -0.191000
      5 C24          1.8640    -0.0080     3.6030 ca         1 1RH      -0.034000
      6 C23          3.2670    -0.0030     3.7040 ca         1 1RH      -0.074000
      7 C37          3.9070    -0.0040     4.9540 ca         1 1RH      -0.064000
      8 C38          5.2670     0.0010     5.0150 ca         1 1RH      -0.124000
      9 C39          6.0370     0.0070     3.8530 ca         1 1RH      -0.083000
     10 C40          5.4510     0.0080     2.6240 ca         1 1RH      -0.129000
     11 C22          4.0500     0.0040     2.5220 ca         1 1RH       0.028000
     12 C21          3.4110    -0.0000     1.2720 ca         1 1RH      -0.188300
     13 C20          4.2260     0.0010     0.0040 c3         1 1RH       0.101300
     14 N11          4.1590     1.3260    -0.6180 n          1 1RH       0.001000
     15 C9           3.2870     1.5530    -1.6240 c          1 1RH       0.607500
     16 O10          2.5050     0.6850    -1.9490 o          1 1RH      -0.639500
     17 C7           3.2780     2.8760    -2.3420 c3         1 1RH      -0.069300
     18 C15          2.6150     3.9440    -1.4700 c3         1 1RH       0.042000
     19 N6           2.5340     2.7430    -3.5960 ns         1 1RH      -0.167900
     20 C5           3.1520     2.2780    -4.7000 c          1 1RH       0.578100
     21 O8           4.3240     1.9700    -4.6550 o          1 1RH      -0.625100
     22 C3           2.3860     2.1410    -5.9920 c3         1 1RH       0.046500
     23 C4           1.2150     1.1770    -5.7900 c3         1 1RH      -0.030100
     24 N2           3.2770     1.6180    -7.0360 n7         1 1RH      -0.548200
     25 C1           2.8090     2.0080    -8.3720 c3         1 1RH       0.172100
     26 C12          4.9980     2.3500    -0.1630 ca         1 1RH      -0.073400
     27 C16          6.3550     2.1350     0.0050 ca         1 1RH      -0.112000
     28 C18          7.1590     3.1560     0.4820 ca         1 1RH      -0.073000
     29 C17          6.6120     4.3870     0.7930 ca         1 1RH      -0.106000
     30 C19          5.2580     4.6110     0.6220 ca         1 1RH      -0.077000
     31 C13          4.4480     3.5990     0.1360 ca         1 1RH      -0.104400
     32 N14          3.0920     3.8260    -0.0910 n          1 1RH      -0.023000
     33 C29          2.2350     3.9360     0.9440 c          1 1RH       0.622700
     34 O30          1.0390     4.0050     0.7370 o          1 1RH      -0.648100
     35 C31          2.7480     3.9700     2.3260 ca         1 1RH      -0.179600
     36 C32          4.0140     3.4550     2.6160 ca         1 1RH      -0.069000
     37 C33          4.4910     3.4900     3.9070 ca         1 1RH      -0.145000
     38 C34          3.7110     4.0370     4.9230 ca         1 1RH       0.056600
     39 N41          4.1950     4.0700     6.2270 nv         1 1RH      -0.530200
     40 C35          2.4500     4.5520     4.6370 ca         1 1RH      -0.145000
     41 C36          1.9710     4.5250     3.3470 ca         1 1RH      -0.069000
     42 H1          -0.3610     0.8830     0.5130 h1         1 1RH       0.000367
     43 H2          -0.3610    -0.8860     0.5090 h1         1 1RH       0.000367
     44 H3          -0.3610     0.0020    -1.0210 h1         1 1RH       0.000367
     45 H4           0.1950    -0.0140     2.3040 ha         1 1RH       0.124000
     46 H5           1.2550    -0.0140     4.4990 ha         1 1RH       0.104000
     47 H6           3.3210    -0.0090     5.8650 ha         1 1RH       0.103000
     48 H7           5.7580    -0.0000     5.9800 ha         1 1RH       0.101000
     49 H8           7.1180     0.0110     3.9290 ha         1 1RH       0.098000
     50 H9           6.0620     0.0130     1.7300 ha         1 1RH       0.114000
     51 H10          3.8300    -0.7390    -0.6810 h1         1 1RH       0.048700
     52 H11          5.2570    -0.2370     0.2360 h1         1 1RH       0.048700
     53 H12          4.2980     3.1720    -2.5540 h1         1 1RH       0.073700
     54 H13          1.5410     3.8070    -1.4910 h1         1 1RH       0.042700
     55 H14          2.8660     4.9250    -1.8540 h1         1 1RH       0.042700
     56 H15          1.5810     3.0450    -3.6470 hn         1 1RH       0.179500
     57 H16          2.0080     3.1100    -6.2920 h1         1 1RH       0.040700
     58 H17          0.4830     1.6310    -5.1340 hc         1 1RH       0.015033
     59 H18          0.7580     0.9590    -6.7470 hc         1 1RH       0.015033
     60 H19          1.5770     0.2570    -5.3450 hc         1 1RH       0.015033
     61 H20          3.3160     0.6200    -6.9730 hn         1 1RH       0.263800
     62 H22          3.5810     1.7970    -9.1020 h1         1 1RH      -0.001633
     63 H23          2.5830     3.0680    -8.3810 h1         1 1RH      -0.001633
     64 H24          1.9160     1.4470    -8.6200 h1         1 1RH      -0.001633
     65 H25          6.7870     1.1720    -0.2380 ha         1 1RH       0.121000
     66 H26          8.2200     2.9870     0.6190 ha         1 1RH       0.108000
     67 H27          7.2470     5.1800     1.1660 ha         1 1RH       0.110000
     68 H28          4.8330     5.5770     0.8670 ha         1 1RH       0.121000
     69 H29          4.6210     3.0290     1.8260 ha         1 1RH       0.139500
     70 H30          5.4720     3.0910     4.1320 ha         1 1RH       0.112000
     71 H31          4.9930     4.6310     6.4500 hn         1 1RH       0.271800
     72 H32          3.7180     3.5680     6.9500 hn         1 1RH       0.271800
     73 H33          1.8480     4.9790     5.4300 ha         1 1RH       0.112000
     74 H34          0.9890     4.9260     3.1250 ha         1 1RH       0.139500
@<TRIPOS>BOND
     1     1     2 1   
     2     1    42 1   
     3     1    43 1   
     4     1    44 1   
     5     2     3 1   
     6     3     4 ar  
     7     3    12 ar  
     8     4     5 ar  
     9     4    45 1   
    10     5     6 ar  
    11     5    46 1   
    12     6     7 ar  
    13     6    11 ar  
    14     7     8 ar  
    15     7    47 1   
    16     8     9 ar  
    17     8    48 1   
    18     9    10 ar  
    19     9    49 1   
    20    10    11 ar  
    21    10    50 1   
    22    11    12 ar  
    23    12    13 1   
    24    13    14 1   
    25    13    51 1   
    26    13    52 1   
    27    14    15 1   
    28    14    26 1   
    29    15    16 2   
    30    15    17 1   
    31    17    18 1   
    32    17    19 1   
    33    17    53 1   
    34    18    32 1   
    35    18    54 1   
    36    18    55 1   
    37    19    20 1   
    38    19    56 1   
    39    20    21 2   
    40    20    22 1   
    41    22    23 1   
    42    22    24 1   
    43    22    57 1   
    44    23    58 1   
    45    23    59 1   
    46    23    60 1   
    47    24    25 1   
    48    24    61 1   
    49    25    62 1   
    50    25    63 1   
    51    25    64 1   
    52    26    27 ar  
    53    26    31 ar  
    54    27    28 ar  
    55    27    65 1   
    56    28    29 ar  
    57    28    66 1   
    58    29    30 ar  
    59    29    67 1   
    60    30    31 ar  
    61    30    68 1   
    62    31    32 1   
    63    32    33 1   
    64    33    34 2   
    65    33    35 1   
    66    35    36 ar  
    67    35    41 ar  
    68    36    37 ar  
    69    36    69 1   
    70    37    38 ar  
    71    37    70 1   
    72    38    39 1   
    73    38    40 ar  
    74    39    71 1   
    75    39    72 1   
    76    40    41 ar  
    77    40    73 1   
    78    41    74 1   
@<TRIPOS>SUBSTRUCTURE
     1 1RH         1 TEMP              0 ****  ****    0 ROOT
