@<TRIPOS>MOLECULE
molecule
   72    76     1     0     0
SMALL
bcc


@<TRIPOS>ATOM
      1 C29          0.0000     0.0000     0.0000 c3         1 1RK       0.134700
      2 O28          1.4290     0.0000     0.0000 os         1 1RK      -0.310900
      3 C27          2.0460     0.0000     1.2100 ca         1 1RK       0.145100
      4 C30          1.2770    -0.0060     2.3790 ca         1 1RK      -0.238000
      5 C31          1.8670    -0.0050     3.6020 ca         1 1RK      -0.062000
      6 C32          3.2710     0.0000     3.7030 ca         1 1RK      -0.081000
      7 C34          3.9040    -0.0000     4.9540 ca         1 1RK      -0.095000
      8 C35          5.2900     0.0060     5.0180 ca         1 1RK      -0.112600
      9 C38          5.9620     0.0060     6.3310 c          1 1RK       0.882200
     10 O40          5.3030     0.0010     7.3510 o          1 1RK      -0.836800
     11 O39          7.3090     0.0100     6.3980 o          1 1RK      -0.836800
     12 C36          6.0580     0.0110     3.8390 ca         1 1RK      -0.052000
     13 C37          5.4620     0.0120     2.6200 ca         1 1RK      -0.192000
     14 C33          4.0580     0.0060     2.5230 ca         1 1RK       0.013000
     15 C15          3.4210     0.0000     1.2720 ca         1 1RK      -0.160300
     16 C14          4.2370     0.0000     0.0060 c3         1 1RK       0.174300
     17 N13          4.6240    -1.3740    -0.3260 n          1 1RK      -0.371000
     18 C16          3.7980    -2.1590    -1.0530 c          1 1RK       0.699500
     19 O17          2.7030    -1.7510    -1.3820 o          1 1RK      -0.597500
     20 C12          5.8570    -1.8860     0.1030 ca         1 1RK       0.059600
     21 C21          7.0230    -1.1630    -0.0810 ca         1 1RK      -0.149000
     22 C19          8.2290    -1.6820     0.3550 ca         1 1RK      -0.116000
     23 C20          8.2720    -2.9170     0.9730 ca         1 1RK      -0.138000
     24 C18          7.1090    -3.6440     1.1570 ca         1 1RK      -0.127000
     25 C11          5.8980    -3.1330     0.7240 ca         1 1RK       0.076100
     26 O10          4.7510    -3.8410     0.8930 os         1 1RK      -0.317900
     27 C9           4.2020    -4.4800    -0.2560 c3         1 1RK       0.149800
     28 C22          2.7480    -4.8750     0.0270 c3         1 1RK      -0.121400
     29 C23          2.7170    -5.8830     1.1780 c3         1 1RK       0.139400
     30 O24          3.5090    -7.0210     0.8330 os         1 1RK      -0.429600
     31 C25          4.8880    -6.7220     0.6000 c3         1 1RK       0.139400
     32 C26          5.0070    -5.7450    -0.5710 c3         1 1RK      -0.121400
     33 C7           4.2420    -3.5420    -1.4540 c3         1 1RK       0.019700
     34 N6           5.6090    -3.4740    -1.9740 ns         1 1RK      -0.584900
     35 C5           5.8260    -3.1480    -3.2630 c          1 1RK       0.654100
     36 O8           4.8870    -2.9110    -3.9930 o          1 1RK      -0.596100
     37 C3           7.2330    -3.0790    -3.7970 c3         1 1RK       0.092500
     38 C4           8.0250    -2.0300    -3.0130 c3         1 1RK      -0.084100
     39 N1           7.2010    -2.7070    -5.2170 n7         1 1RK      -0.803200
     40 C2           8.4010    -3.1840    -5.9150 c3         1 1RK       0.147100
     41 H1          -0.3610    -0.0070    -1.0210 h1         1 1RK       0.031367
     42 H2          -0.3610    -0.8810     0.5170 h1         1 1RK       0.031367
     43 H3          -0.3610     0.8880     0.5040 h1         1 1RK       0.031367
     44 H4           0.1960    -0.0090     2.3070 ha         1 1RK       0.119000
     45 H5           1.2580    -0.0100     4.4980 ha         1 1RK       0.127000
     46 H6           3.3200     0.1260     5.8570 ha         1 1RK       0.151000
     47 H8           7.1390     0.0150     3.9060 ha         1 1RK       0.154000
     48 H9           6.0670     0.0150     1.7220 ha         1 1RK       0.113000
     49 H10          5.1270     0.6010     0.1500 h1         1 1RK       0.067700
     50 H11          3.6480     0.4150    -0.8030 h1         1 1RK       0.067700
     51 H12          6.9920    -0.1950    -0.5650 ha         1 1RK       0.144000
     52 H13          9.1420    -1.1170     0.2130 ha         1 1RK       0.134000
     53 H14          9.2190    -3.3190     1.3120 ha         1 1RK       0.135000
     54 H15          7.1470    -4.6130     1.6420 ha         1 1RK       0.143000
     55 H16          2.3170    -5.3250    -0.8590 hc         1 1RK       0.063700
     56 H17          2.1820    -3.9930     0.3040 hc         1 1RK       0.063700
     57 H18          1.6950    -6.1960     1.3550 h1         1 1RK       0.056450
     58 H19          3.1190    -5.4220     2.0720 h1         1 1RK       0.056450
     59 H20          5.4190    -7.6360     0.3620 h1         1 1RK       0.056450
     60 H21          5.3130    -6.2720     1.4890 h1         1 1RK       0.056450
     61 H22          4.6150    -6.2080    -1.4680 hc         1 1RK       0.063700
     62 H23          6.0480    -5.4830    -0.7170 hc         1 1RK       0.063700
     63 H24          3.5790    -3.9190    -2.2240 h1         1 1RK       0.112700
     64 H25          6.3800    -3.7200    -1.3850 hn         1 1RK       0.328500
     65 H26          7.7090    -4.0460    -3.6880 h1         1 1RK       0.033700
     66 H27          8.8440    -1.6660    -3.6220 hc         1 1RK       0.047033
     67 H28          7.3730    -1.2040    -2.7540 hc         1 1RK       0.047033
     68 H29          8.4190    -2.4760    -2.1080 hc         1 1RK       0.047033
     69 H30          6.3870    -3.1000    -5.6460 hn         1 1RK       0.377800
     70 H32          9.2630    -2.6200    -5.5780 h1         1 1RK       0.028367
     71 H33          8.2760    -3.0480    -6.9830 h1         1 1RK       0.028367
     72 H34          8.5500    -4.2350    -5.7000 h1         1 1RK       0.028367
@<TRIPOS>BOND
     1    40    39 1   
     2    39    37 1   
     3    36    35 2   
     4    37    35 1   
     5    37    38 1   
     6    35    34 1   
     7    22    23 ar  
     8    22    21 ar  
     9    23    24 ar  
    10    21    20 ar  
    11    28    29 1   
    12    28    27 1   
    13    24    25 ar  
    14    34    33 1   
    15    29    30 1   
    16    33    27 1   
    17    33    18 1   
    18    20    25 ar  
    19    20    17 1   
    20    25    26 1   
    21    27    26 1   
    22    27    32 1   
    23     1     2 1   
    24    17    18 1   
    25    17    16 1   
    26    18    19 2   
    27     2     3 1   
    28    30    31 1   
    29    16    15 1   
    30    32    31 1   
    31     3    15 ar  
    32     3     4 ar  
    33    15    14 ar  
    34     4     5 ar  
    35    14    13 ar  
    36    14     6 ar  
    37    13    12 ar  
    38     5     6 ar  
    39     6     7 ar  
    40    12     8 ar  
    41     7     8 ar  
    42     8     9 1   
    43     9    10 1   
    44     9    11 1   
    45     1    41 1   
    46     1    42 1   
    47     1    43 1   
    48     4    44 1   
    49     5    45 1   
    50     7    46 1   
    51    12    47 1   
    52    13    48 1   
    53    16    49 1   
    54    16    50 1   
    55    21    51 1   
    56    22    52 1   
    57    23    53 1   
    58    24    54 1   
    59    28    55 1   
    60    28    56 1   
    61    29    57 1   
    62    29    58 1   
    63    31    59 1   
    64    31    60 1   
    65    32    61 1   
    66    32    62 1   
    67    33    63 1   
    68    34    64 1   
    69    37    65 1   
    70    38    66 1   
    71    38    67 1   
    72    38    68 1   
    73    39    69 1   
    74    40    70 1   
    75    40    71 1   
    76    40    72 1   
@<TRIPOS>SUBSTRUCTURE
     1 1RK         1 TEMP              0 ****  ****    0 ROOT
