@<TRIPOS>MOLECULE
1RK
   74    78     1     0     0
SMALL
bcc


@<TRIPOS>ATOM
      1 C29          0.0890     0.2050     0.4040 c3         1 1RK       0.111700
      2 O28          1.4920     0.0710     0.1870 os         1 1RK      -0.344900
      3 C27          2.3090     0.2410     1.2890 ca         1 1RK       0.164100
      4 C30          1.7920     0.3000     2.6110 ca         1 1RK      -0.193000
      5 C31          2.6490     0.4690     3.6670 ca         1 1RK      -0.052000
      6 C32          4.0470     0.6060     3.4520 ca         1 1RK      -0.085000
      7 C34          4.9240     0.8120     4.5500 ca         1 1RK      -0.026000
      8 C35          6.2790     0.9610     4.3460 ca         1 1RK      -0.186600
      9 C38          7.1650     1.1820     5.5040 c          1 1RK       0.638700
     10 O40          8.4510     0.7160     5.4750 oh         1 1RK      -0.574100
     11 O39          6.8770     1.7600     6.5520 o          1 1RK      -0.476000
     12 C36          6.7980     0.9370     3.0260 ca         1 1RK      -0.099000
     13 C37          5.9670     0.7380     1.9540 ca         1 1RK      -0.137000
     14 C33          4.5650     0.5510     2.1310 ca         1 1RK       0.036000
     15 C15          3.6760     0.3430     1.0360 ca         1 1RK      -0.156300
     16 C14          4.1760     0.3030    -0.3770 c3         1 1RK       0.145300
     17 N13          4.8830    -0.9080    -0.7760 n          1 1RK      -0.341000
     18 C16          6.1880    -0.8330    -1.2220 c          1 1RK       0.683500
     19 O17          6.8110     0.2510    -1.2810 o          1 1RK      -0.671500
     20 C12          4.2780    -2.1750    -0.5750 ca         1 1RK       0.021600
     21 C21          2.9300    -2.4060    -0.9150 ca         1 1RK      -0.119000
     22 C19          2.3640    -3.6650    -0.7320 ca         1 1RK      -0.113000
     23 C20          3.1130    -4.7210    -0.2140 ca         1 1RK      -0.120000
     24 C18          4.4470    -4.5220     0.1320 ca         1 1RK      -0.116000
     25 C11          5.0220    -3.2590    -0.0380 ca         1 1RK       0.051100
     26 O10          6.3040    -3.0450     0.4550 os         1 1RK      -0.322900
     27 C9           7.3500    -2.9890    -0.5360 c3         1 1RK       0.163800
     28 C22          7.7010    -4.4040    -1.0020 c3         1 1RK      -0.119900
     29 C23          8.2790    -5.2200     0.1450 c3         1 1RK       0.127400
     30 O24          9.3870    -4.5650     0.7500 os         1 1RK      -0.407600
     31 C25          9.0370    -3.2960     1.2920 c3         1 1RK       0.127400
     32 C26          8.5380    -2.3600     0.2010 c3         1 1RK      -0.119900
     33 C7           6.8620    -2.1320    -1.7450 c3         1 1RK      -0.009300
     34 N6           7.9360    -1.8040    -2.6640 ns         1 1RK      -0.487900
     35 C5           7.7890    -1.9500    -4.0140 c          1 1RK       0.643100
     36 O8           6.9030    -2.6380    -4.5630 o          1 1RK      -0.601100
     37 C3           8.8800    -1.2850    -4.9040 c3         1 1RK       0.037500
     38 C4           8.8080     0.2290    -4.7780 c3         1 1RK      -0.136100
     39 N1           8.6990    -1.7330    -6.3350 ny         1 1RK      -0.757000
     40 C2           9.9790    -1.8640    -7.0590 c3         1 1RK       0.081100
     41 H1          -0.2910    -0.6470     1.0180 h1         1 1RK       0.053033
     42 H2          -0.1490     1.1820     0.8880 h1         1 1RK       0.053033
     43 H3          -0.3350     0.1630    -0.6320 h1         1 1RK       0.053033
     44 H4           0.7110     0.2040     2.7870 ha         1 1RK       0.151000
     45 H5           2.2650     0.5090     4.6990 ha         1 1RK       0.150000
     46 H6           4.5080     0.8610     5.5720 ha         1 1RK       0.162000
     47 H8           7.8750     1.1050     2.8680 ha         1 1RK       0.135000
     48 H9           6.3870     0.7370     0.9340 ha         1 1RK       0.151000
     49 H10          4.8690     1.1830    -0.5400 h1         1 1RK       0.083700
     50 H11          3.3020     0.4180    -1.0850 h1         1 1RK       0.083700
     51 H12          2.3070    -1.5810    -1.2990 ha         1 1RK       0.161000
     52 H13          1.3080    -3.8230    -1.0010 ha         1 1RK       0.147000
     53 H14          2.6510    -5.7100    -0.0720 ha         1 1RK       0.150000
     54 H15          5.0520    -5.3360     0.5590 ha         1 1RK       0.154000
     55 H16          6.7780    -4.9120    -1.3840 hc         1 1RK       0.061200
     56 H17          8.4480    -4.3460    -1.8320 hc         1 1RK       0.061200
     57 H18          8.7020    -6.1910    -0.2260 h1         1 1RK       0.065200
     58 H19          7.4850    -5.4130     0.9160 h1         1 1RK       0.065200
     59 H20          8.2540    -3.4200     2.0860 h1         1 1RK       0.065200
     60 H21          9.9920    -2.9160     1.7420 h1         1 1RK       0.065200
     61 H22          9.3720    -2.1770    -0.5220 hc         1 1RK       0.061200
     62 H23          8.2230    -1.3830     0.6510 hc         1 1RK       0.061200
     63 H24          6.0940    -2.7480    -2.3100 h1         1 1RK       0.123700
     64 H25          8.5760    -1.1130    -2.3230 hn         1 1RK       0.337500
     65 H26          9.8960    -1.6560    -4.5670 hx         1 1RK       0.125700
     66 H27          9.5420     0.7260    -5.4600 hc         1 1RK       0.088033
     67 H28          7.7810     0.6100    -5.0050 hc         1 1RK       0.088033
     68 H29          9.0620     0.5270    -3.7290 hc         1 1RK       0.088033
     69 H30          8.1960    -2.6400    -6.3280 hn         1 1RK       0.470300
     70 H32         10.5360    -0.8890    -7.0240 hx         1 1RK       0.109700
     71 H33          9.7670    -2.1380    -8.1290 hx         1 1RK       0.109700
     72 H34         10.6030    -2.6700    -6.5860 hx         1 1RK       0.109700
     73 H62          8.5980     0.1950     4.6740 ho         1 1RK       0.422000
     74 H121         8.0950    -1.0530    -6.8130 hn         1 1RK       0.470300
@<TRIPOS>BOND
     1     1     2 1   
     2     1    41 1   
     3     1    42 1   
     4     1    43 1   
     5     2     3 1   
     6     3     4 ar  
     7     3    15 ar  
     8     4     5 ar  
     9     4    44 1   
    10     5     6 ar  
    11     5    45 1   
    12     6     7 ar  
    13     6    14 ar  
    14     7     8 ar  
    15     7    46 1   
    16     8     9 1   
    17     8    12 ar  
    18     9    10 1   
    19     9    11 2   
    20    10    73 1   
    21    12    13 ar  
    22    12    47 1   
    23    13    14 ar  
    24    13    48 1   
    25    14    15 ar  
    26    15    16 1   
    27    16    17 1   
    28    16    49 1   
    29    16    50 1   
    30    17    18 1   
    31    17    20 1   
    32    18    19 2   
    33    18    33 1   
    34    20    21 ar  
    35    20    25 ar  
    36    21    22 ar  
    37    21    51 1   
    38    22    23 ar  
    39    22    52 1   
    40    23    24 ar  
    41    23    53 1   
    42    24    25 ar  
    43    24    54 1   
    44    25    26 1   
    45    26    27 1   
    46    27    28 1   
    47    27    32 1   
    48    27    33 1   
    49    28    29 1   
    50    28    55 1   
    51    28    56 1   
    52    29    30 1   
    53    29    57 1   
    54    29    58 1   
    55    30    31 1   
    56    31    32 1   
    57    31    59 1   
    58    31    60 1   
    59    32    61 1   
    60    32    62 1   
    61    33    34 1   
    62    33    63 1   
    63    34    35 1   
    64    34    64 1   
    65    35    36 2   
    66    35    37 1   
    67    37    38 1   
    68    37    39 1   
    69    37    65 1   
    70    38    66 1   
    71    38    67 1   
    72    38    68 1   
    73    39    40 1   
    74    39    69 1   
    75    39    74 1   
    76    40    70 1   
    77    40    71 1   
    78    40    72 1   
@<TRIPOS>SUBSTRUCTURE
     1 1RK         1 TEMP              0 ****  ****    0 ROOT
