@<TRIPOS>MOLECULE
molecule
   37    40     1     0     0
SMALL
bcc


@<TRIPOS>ATOM
      1 O1           0.0000     0.0000     0.0000 o          1 1RO      -0.521100
      2 C13          1.2200     0.0000     0.0000 c          1 1RO       0.727700
      3 N2           1.9300     0.0000     1.1080 nc         1 1RO      -0.791100
      4 C15          3.2410    -0.0050     1.0570 cd         1 1RO       0.766100
      5 N3           4.0980    -0.0080     2.1240 nu         1 1RO      -0.815200
      6 C18          3.5650    -0.0030     3.4900 c3         1 1RO       0.316100
      7 C19          4.7070    -0.0060     4.4740 cc         1 1RO      -0.082400
      8 C23          5.2940     1.0820     4.9750 cd         1 1RO      -0.127000
      9 C22          6.3240     0.8320     5.8640 cd         1 1RO      -0.164000
     10 C21          6.5740    -0.4600     6.0870 cc         1 1RO      -0.057100
     11 S2           5.4640    -1.4460     5.1440 ss         1 1RO      -0.142800
     12 S1           3.6950    -0.0110    -0.6570 ss         1 1RO      -0.283800
     13 C12          2.0170    -0.0050    -1.2400 cc         1 1RO      -0.132600
     14 C11          1.5740    -0.0110    -2.5220 cf         1 1RO       0.034800
     15 C1           0.1430    -0.1940    -2.8040 ca         1 1RO      -0.107800
     16 C6          -0.4730     0.5620    -3.8200 ca         1 1RO      -0.093000
     17 C5          -1.7910     0.4110    -4.0990 ca         1 1RO      -0.177300
     18 C4          -2.5670    -0.5120    -3.3700 ca         1 1RO       0.434600
     19 N1          -3.8670    -0.6720    -3.6340 nb         1 1RO      -0.688000
     20 C9          -4.6010    -1.5270    -2.9620 ca         1 1RO       0.439200
     21 C8          -4.0640    -2.3110    -1.9430 ca         1 1RO      -0.267300
     22 C7          -2.7420    -2.1980    -1.6210 ca         1 1RO      -0.060000
     23 C3          -1.9580    -1.2780    -2.3440 ca         1 1RO      -0.165300
     24 C2          -0.5930    -1.1160    -2.0710 ca         1 1RO      -0.011000
     25 H1           5.0860    -0.0510     1.9730 hn         1 1RO       0.465800
     26 H2           2.9550    -0.8850     3.6420 h1         1 1RO       0.076700
     27 H3           2.9620     0.8840     3.6390 h1         1 1RO       0.076700
     28 H4           4.9880     2.0850     4.7050 ha         1 1RO       0.154000
     29 H5           6.8860     1.6250     6.3420 ha         1 1RO       0.153000
     30 H6           7.3400    -0.8420     6.7510 h4         1 1RO       0.175000
     31 H7           2.2870    -0.0130    -3.3370 ha         1 1RO       0.143000
     32 H8           0.1140     1.2740    -4.3870 ha         1 1RO       0.133000
     33 H9          -2.2490     1.0010    -4.8840 ha         1 1RO       0.149000
     34 H10         -5.6510    -1.6260    -3.2070 h4         1 1RO       0.021100
     35 H11         -4.6960    -3.0080    -1.4060 ha         1 1RO       0.137000
     36 H12         -2.3090    -2.8000    -0.8310 ha         1 1RO       0.143000
     37 H13         -0.0890    -1.8070    -1.4070 ha         1 1RO       0.142000
@<TRIPOS>BOND
     1    11    10 1
     2    11     7 1
     3     6     7 1
     4     6     5 1
     5    10     9 2
     6     7     8 2
     7     5     4 1
     8     9     8 1
     9     4     3 2
    10     4    12 1
    11     3     2 1
    12    12    13 1
    13     2    13 1
    14     2     1 2
    15    13    14 2
    16    14    15 1
    17    24    15 ar
    18    24    23 ar
    19    22    23 ar
    20    22    21 ar
    21    15    16 ar
    22    23    18 ar
    23    21    20 ar
    24    16    17 ar
    25    18    17 ar
    26    18    19 ar
    27    20    19 ar
    28     5    25 1
    29     6    26 1
    30     6    27 1
    31     8    28 1
    32     9    29 1
    33    10    30 1
    34    14    31 1
    35    16    32 1
    36    17    33 1
    37    20    34 1
    38    21    35 1
    39    22    36 1
    40    24    37 1
@<TRIPOS>SUBSTRUCTURE
     1 1RO         1 TEMP              0 ****  ****    0 ROOT
