@<TRIPOS>MOLECULE
1RO
   38    42     1     0     0
SMALL
bcc


@<TRIPOS>ATOM
      1 O1          -2.1220    -0.5370     0.5050 o          1 1RO      -0.406100
      2 C13         -0.9560    -0.1650     0.4690 c          1 1RO       0.693700
      3 N2          -0.3450     0.5510     1.5860 nc         1 1RO      -0.571100
      4 C15          0.9090     0.8130     1.3190 cd         1 1RO       0.472100
      5 N3           1.7750     1.5320     2.2590 ny         1 1RO      -0.716000
      6 C18          2.0750     0.7120     3.5020 c3         1 1RO       0.232100
      7 C19          2.9540     1.4650     4.3990 cc         1 1RO      -0.299400
      8 C23          2.5240     2.4950     5.2370 cd         1 1RO      -0.094000
      9 C22          3.5830     2.9890     6.0410 cd         1 1RO      -0.153000
     10 C21          4.7650     2.3080     5.7900 cc         1 1RO      -0.130100
     11 S2           4.5790     1.1380     4.6390 ss         1 1RO       0.146200
     12 S1           1.5590     0.2920    -0.2110 ss         1 1RO      -0.055800
     13 C12          0.0240    -0.3640    -0.6470 cc         1 1RO      -0.121600
     14 C11         -0.2640    -0.9460    -1.7910 cu         1 1RO      -0.010400
     15 C1           0.1830    -1.4140    -3.1180 cx         1 1RO      -0.030300
     16 C6           0.4240    -0.4390    -4.1850 c2         1 1RO      -0.168200
     17 C5          -0.5680     0.2800    -4.7360 ce         1 1RO      -0.176800
     18 C4          -1.9660     0.1380    -4.3140 ca         1 1RO       0.451100
     19 N1          -2.9090     0.9000    -4.9340 nb         1 1RO      -0.646000
     20 C9          -4.1880     0.7300    -4.5750 ca         1 1RO       0.418200
     21 C8          -4.6140    -0.1960    -3.5980 ca         1 1RO      -0.230300
     22 C7          -3.6530    -0.9710    -2.9590 ca         1 1RO      -0.068000
     23 C3          -2.3030    -0.8030    -3.3060 ca         1 1RO      -0.189600
     24 C2          -1.2630    -1.6080    -2.6550 cx         1 1RO       0.008800
     25 H1           1.3200     2.4100     2.5550 hn         1 1RO       0.467300
     26 H2           1.0810     0.4890     3.9950 hx         1 1RO       0.119700
     27 H3           2.5410    -0.2560     3.1610 hx         1 1RO       0.119700
     28 H4           1.4990     2.8720     5.2950 ha         1 1RO       0.165000
     29 H5           3.4670     3.7980     6.7690 ha         1 1RO       0.185000
     30 H6           5.7140     2.5060     6.2950 h4         1 1RO       0.202000
     31 H7           0.8590    -2.2970    -3.1500 hc         1 1RO       0.121700
     32 H8           1.4620    -0.3550    -4.5430 ha         1 1RO       0.152000
     33 H9          -0.3640     0.9930    -5.5550 ha         1 1RO       0.169000
     34 H10         -4.9200     1.3690    -5.1040 h4         1 1RO       0.039100
     35 H11         -5.6810    -0.2930    -3.3540 ha         1 1RO       0.160000
     36 H12         -3.9400    -1.7020    -2.1880 ha         1 1RO       0.152000
     37 H13         -1.6030    -2.6240    -2.3540 hc         1 1RO       0.125700
     38 H32          2.6530     1.7710     1.7810 hn         1 1RO       0.467300
@<TRIPOS>BOND
     1     1     2 2   
     2     2     3 1   
     3     2    13 1   
     4     3     4 2   
     5     4     5 1   
     6     4    12 1   
     7     5     6 1   
     8     5    25 1   
     9     5    38 1   
    10     6     7 1   
    11     6    26 1   
    12     6    27 1   
    13     7     8 2   
    14     7    11 1   
    15     8     9 1   
    16     8    28 1   
    17     9    10 2   
    18     9    29 1   
    19    10    11 1   
    20    10    30 1   
    21    12    13 1   
    22    13    14 2   
    23    14    15 1   
    24    14    24 1   
    25    15    16 1   
    26    15    24 1   
    27    15    31 1   
    28    16    17 2   
    29    16    32 1   
    30    17    18 1   
    31    17    33 1   
    32    18    19 ar  
    33    18    23 ar  
    34    19    20 ar  
    35    20    21 ar  
    36    20    34 1   
    37    21    22 ar  
    38    21    35 1   
    39    22    23 ar  
    40    22    36 1   
    41    23    24 1   
    42    24    37 1   
@<TRIPOS>SUBSTRUCTURE
     1 1RO         1 TEMP              0 ****  ****    0 ROOT
