@<TRIPOS>MOLECULE
1RO
   37    40     1     0     0
SMALL
bcc


@<TRIPOS>ATOM
      1 O1           0.0000     0.0000     0.0000 o          1 1RO      -0.558100
      2 C13          1.2200     0.0000     0.0000 c          1 1RO       0.731700
      3 N2           1.9300     0.0000     1.1080 nc         1 1RO      -0.702100
      4 C15          3.2410    -0.0050     1.0570 cd         1 1RO       0.580100
      5 N3           4.0980    -0.0080     2.1240 nu         1 1RO      -0.364200
      6 C18          3.5650    -0.0030     3.4900 c3         1 1RO       0.253100
      7 C19          4.7070    -0.0060     4.4740 cc         1 1RO      -0.042400
      8 C23          5.2940     1.0820     4.9750 cd         1 1RO      -0.095000
      9 C22          6.3240     0.8320     5.8640 cd         1 1RO      -0.133000
     10 C21          6.5740    -0.4600     6.0870 cc         1 1RO       0.024900
     11 S2           5.4640    -1.4460     5.1440 ss         1 1RO      -0.257800
     12 S1           3.6950    -0.0110    -0.6570 ss         1 1RO      -0.332800
     13 C12          2.0170    -0.0050    -1.2400 cc         1 1RO      -0.129600
     14 C11          1.5740    -0.0110    -2.5220 cf         1 1RO       0.104800
     15 C1           0.1430    -0.1940    -2.8040 ca         1 1RO      -0.119800
     16 C6          -0.4730     0.5620    -3.8200 ca         1 1RO      -0.066000
     17 C5          -1.7910     0.4110    -4.0990 ca         1 1RO      -0.155300
     18 C4          -2.5670    -0.5120    -3.3700 ca         1 1RO       0.390600
     19 N1          -3.8670    -0.6720    -3.6340 nb         1 1RO      -0.579000
     20 C9          -4.6010    -1.5270    -2.9620 ca         1 1RO       0.420200
     21 C8          -4.0640    -2.3110    -1.9430 ca         1 1RO      -0.235300
     22 C7          -2.7420    -2.1980    -1.6210 ca         1 1RO      -0.034000
     23 C3          -1.9580    -1.2780    -2.3440 ca         1 1RO      -0.162300
     24 C2          -0.5930    -1.1160    -2.0710 ca         1 1RO       0.020000
     25 H1           5.0860    -0.0510     1.9730 hn         1 1RO       0.305800
     26 H2           2.9620     0.8840     3.6390 h1         1 1RO       0.044700
     27 H3           2.9550    -0.8850     3.6420 h1         1 1RO       0.044700
     28 H4           4.9880     2.0850     4.7050 ha         1 1RO       0.125000
     29 H5           6.8860     1.6250     6.3420 ha         1 1RO       0.125000
     30 H6           7.3400    -0.8420     6.7510 h4         1 1RO       0.151000
     31 H7           2.2800     0.0830    -3.3380 ha         1 1RO       0.109000
     32 H8           0.1140     1.2740    -4.3870 ha         1 1RO       0.102000
     33 H9          -2.2490     1.0010    -4.8840 ha         1 1RO       0.118000
     34 H10         -5.6510    -1.6260    -3.2070 h4         1 1RO      -0.024900
     35 H11         -4.6960    -3.0080    -1.4060 ha         1 1RO       0.112000
     36 H12         -2.3090    -2.8000    -0.8310 ha         1 1RO       0.113000
     37 H13         -0.0890    -1.8070    -1.4070 ha         1 1RO       0.115000
@<TRIPOS>BOND
     1     1     2 2   
     2     2     3 1   
     3     2    13 1   
     4     3     4 2   
     5     4     5 1   
     6     4    12 1   
     7     5     6 1   
     8     5    25 1   
     9     6     7 1   
    10     6    26 1   
    11     6    27 1   
    12     7     8 2   
    13     7    11 1   
    14     8     9 1   
    15     8    28 1   
    16     9    10 2   
    17     9    29 1   
    18    10    11 1   
    19    10    30 1   
    20    12    13 1   
    21    13    14 2   
    22    14    15 1   
    23    14    31 1   
    24    15    16 ar  
    25    15    24 ar  
    26    16    17 ar  
    27    16    32 1   
    28    17    18 ar  
    29    17    33 1   
    30    18    19 ar  
    31    18    23 ar  
    32    19    20 ar  
    33    20    21 ar  
    34    20    34 1   
    35    21    22 ar  
    36    21    35 1   
    37    22    23 ar  
    38    22    36 1   
    39    23    24 ar  
    40    24    37 1   
@<TRIPOS>SUBSTRUCTURE
     1 1RO         1 TEMP              0 ****  ****    0 ROOT
