@<TRIPOS>MOLECULE
molecule
   36    37     1     0     0
SMALL
bcc


@<TRIPOS>ATOM
      1 OAG          0.0000     0.0000     0.0000 o          1 1RP      -0.706833
      2 PAX          1.6100     0.0000     0.0000 p5         1 1RP       1.203900
      3 OAH          2.1460     0.0000     1.5180 o          1 1RP      -0.706833
      4 OAC          2.1030    -1.2080    -0.6970 o          1 1RP      -0.706833
      5 O5'          2.1470     1.3140    -0.7590 os         1 1RP      -0.573200
      6 C5'          1.9280     1.5530    -2.1510 c3         1 1RP       0.228400
      7 C4'          2.5670     2.8860    -2.5450 c3         1 1RP       0.124100
      8 O4'          4.0070     2.7860    -2.5040 os         1 1RP      -0.379600
      9 C3'          2.2370     3.2250    -4.0160 c3         1 1RP       0.094100
     10 O3'          1.1440     4.1430    -4.0860 oh         1 1RP      -0.571800
     11 C2'          3.5300     3.8830    -4.5490 c3         1 1RP       0.079100
     12 O2'          3.2740     5.2270    -4.9640 oh         1 1RP      -0.567800
     13 C1'          4.4880     3.8640    -3.3370 c3         1 1RP       0.275500
     14 NAW          5.8600     3.5960    -3.7760 n          1 1RP      -0.272000
     15 CAQ          6.8340     4.5080    -3.5640 c          1 1RP       0.598200
     16 OAD          6.5880     5.5630    -3.0070 o          1 1RP      -0.594500
     17 CAJ          6.1650     2.4330    -4.3900 cc         1 1RP      -0.077400
     18 CAP          7.4490     2.1730    -4.8050 cd         1 1RP       0.272100
     19 FAI          7.7200     0.9980    -5.4160 f          1 1RP      -0.149500
     20 NAL          8.4270     3.0440    -4.6200 nd         1 1RP      -0.653300
     21 CAR          8.1940     4.2000    -4.0190 cc         1 1RP       0.198300
     22 CAO          9.2870     5.1680    -3.8090 c          1 1RP       0.335800
     23 OAB          9.0640     6.2270    -3.2560 o          1 1RP      -0.506100
     24 NAA         10.5340     4.8770    -4.2310 nz         1 1RP      -0.639400
     25 H3           0.8640     1.5900    -2.3480 h1         1 1RP       0.034200
     26 H4           2.3750     0.7530    -2.7290 h1         1 1RP       0.034200
     27 H5           2.2280     3.6810    -1.8930 h1         1 1RP       0.089700
     28 H6           2.0180     2.3210    -4.5720 h1         1 1RP       0.050700
     29 H7           0.4950     3.8130    -4.6860 ho         1 1RP       0.398000
     30 H8           3.9420     3.3000    -5.3640 h1         1 1RP       0.038700
     31 H9           3.3730     5.2910    -5.8990 ho         1 1RP       0.394000
     32 H10          4.4340     4.8040    -2.8010 h2         1 1RP       0.129700
     33 H11          5.3890     1.6960    -4.5560 h4         1 1RP       0.188000
     34 H14         10.8550     4.0460    -3.7740 hn         1 1RP       0.446467
     35 H15         10.5250     4.7310    -5.2210 hn         1 1RP       0.446467
     36 HAA3        11.1460     5.6370    -4.0100 hn         1 1RP       0.446467
@<TRIPOS>BOND
     1     4     2 1
     2    23    22 2
     3     3     2 1
     4     2     1 1
     5     2     5 1
     6    24    22 1
     7    22    21 1
     8    16    15 2
     9     5     6 1
    10     6     7 1
    11    21    15 1
    12    21    20 2
    13    15    14 1
    14     8     7 1
    15     8    13 1
    16     7     9 1
    17    20    18 1
    18    14    13 1
    19    14    17 1
    20     9    11 1
    21     9    10 1
    22    13    11 1
    23    11    12 1
    24    18    17 2
    25    18    19 1
    26     6    25 1
    27     6    26 1
    28     7    27 1
    29     9    28 1
    30    10    29 1
    31    11    30 1
    32    12    31 1
    33    13    32 1
    34    17    33 1
    35    24    34 1
    36    24    35 1
    37    36    24 1
@<TRIPOS>SUBSTRUCTURE
     1 1RP         1 TEMP              0 ****  ****    0 ROOT
