@<TRIPOS>MOLECULE
1RP
   35    36     1     0     0
SMALL
bcc


@<TRIPOS>ATOM
      1 OAG         0.9660    0.6440   -3.0580 o         1 1RP     -0.921167
      2 PAX         2.0320    0.1220   -2.1240 p5        1 1RP      1.346900
      3 OAH         1.7840   -1.0890   -1.2930 o         1 1RP     -0.921167
      4 OAC         3.4070    0.3060   -2.7480 o         1 1RP     -0.921167
      5 O5'         2.0160    1.4600   -1.0180 os        1 1RP     -0.566200
      6 C5'         3.0540    2.3460   -1.0620 c3        1 1RP      0.230400
      7 C4'         2.7900    3.5500   -2.0020 c3        1 1RP      0.062100
      8 O4'         4.0110    4.3270   -2.0950 os        1 1RP     -0.428600
      9 C3'         2.3790    3.1590   -3.4360 c3        1 1RP      0.071100
     10 O3'         1.0270    3.4620   -3.6820 oh        1 1RP     -0.662800
     11 C2'         3.2980    3.9610   -4.3700 c3        1 1RP      0.109100
     12 O2'         2.7280    5.1300   -4.9200 oh        1 1RP     -0.617800
     13 C1'         4.4760    4.3860   -3.4350 c3        1 1RP      0.250500
     14 NAW         5.6910    3.5580   -3.6160 n         1 1RP     -0.297000
     15 CAQ         6.9080    4.2200   -3.9060 c         1 1RP      0.567200
     16 OAD         6.9430    5.4680   -4.0300 o         1 1RP     -0.700500
     17 CAJ         5.6610    2.1970   -3.5020 cc        1 1RP      0.028600
     18 CAP         6.8560    1.4590   -3.6970 cd        1 1RP      0.155100
     19 FAI         6.8270    0.1040   -3.6120 f         1 1RP     -0.126500
     20 NAL         8.0720    2.0360   -3.9720 nd        1 1RP     -0.460300
     21 CAR         8.0950    3.3580   -4.0720 cc        1 1RP      0.209300
     22 CAO         9.4030    4.0410   -4.3410 c         1 1RP      0.607800
     23 OAB        10.4630    3.7380   -3.7570 o         1 1RP     -0.618100
     24 NAA         9.4150    5.0130   -5.3300 n         1 1RP     -0.642000
     25 H3          4.0130    1.8470   -1.3760 h1        1 1RP     -0.001800
     26 H4          3.2030    2.7850   -0.0300 h1        1 1RP     -0.001800
     27 H5          2.0310    4.2410   -1.5500 h1        1 1RP      0.049700
     28 H6          2.5550    2.0390   -3.5820 h1        1 1RP      0.171700
     29 H7          0.5520    2.6110   -3.5390 ho        1 1RP      0.496000
     30 H8          3.6420    3.3460   -5.2420 h1        1 1RP      0.074700
     31 H9          1.8950    5.2920   -4.4560 ho        1 1RP      0.425000
     32 H10         4.7720    5.4630   -3.6140 h2        1 1RP      0.112700
     33 H11         4.6880    1.6340   -3.2530 h4        1 1RP      0.333000
     34 H14         8.5480    5.4440   -5.5580 hn        1 1RP      0.294500
     35 H15        10.2120    5.6040   -5.3560 hn        1 1RP      0.294500
@<TRIPOS>BOND
     1    1    2 1   
     2    2    3 1   
     3    2    4 1   
     4    2    5 1   
     5    5    6 1   
     6    6    7 1   
     7    6   25 1   
     8    6   26 1   
     9    7    8 1   
    10    7    9 1   
    11    7   27 1   
    12    8   13 1   
    13    9   10 1   
    14    9   11 1   
    15    9   28 1   
    16   10   29 1   
    17   11   12 1   
    18   11   13 1   
    19   11   30 1   
    20   12   31 1   
    21   13   14 1   
    22   13   32 1   
    23   14   15 1   
    24   14   17 1   
    25   15   16 2   
    26   15   21 1   
    27   17   18 2   
    28   17   33 1   
    29   18   19 1   
    30   18   20 1   
    31   20   21 2   
    32   21   22 1   
    33   22   23 2   
    34   22   24 1   
    35   24   34 1   
    36   24   35 1   
@<TRIPOS>SUBSTRUCTURE
     1 1RP         1 TEMP              0 ****  ****    0 ROOT
