@<TRIPOS>MOLECULE
1RQ
   66    65     1     0     0
SMALL
bcc


@<TRIPOS>ATOM
      1 C4         -0.0850   -0.1570    0.0040 c2        1 1RQ      0.167000
      2 C5          1.2900   -0.3150    0.2130 c2        1 1RQ     -0.278000
      3 C6          1.7780   -0.4840    1.5420 c1        1 1RQ     -0.076000
      4 N1          0.8840   -0.4930    2.5470 n3        1 1RQ     -0.169000
      5 N3         -0.9950   -0.1550    1.0540 n2        1 1RQ     -0.238000
      6 CAQ         0.5820    2.2980   10.8860 c2        1 1RQ     -0.171000
      7 CAR        -0.4870    0.1170   11.4100 c3        1 1RQ     -0.188000
      8 CBJ        -0.0040    1.1650   10.4840 c2        1 1RQ     -0.107000
      9 OAA        -0.7400    1.7700    8.2840 o         1 1RQ     -0.355000
     10 NBK         0.2160   -0.2960    8.4340 n         1 1RQ     -0.263000
     11 CAT        -1.4380    1.1850    5.1710 c2        1 1RQ     -0.004000
     12 CAS         0.8420   -1.2250    9.1230 c1        1 1RQ     -0.133000
     13 CAO         2.8630   -0.8670    5.3420 c3        1 1RQ     -0.285000
     14 CAP        -0.3340   -0.8790    5.5690 c1        1 1RQ     -0.096000
     15 CBI        -1.0470   -0.0280    4.6780 c2        1 1RQ     -0.149000
     16 C2         -0.5050   -0.3430    2.3070 c2        1 1RQ      0.158000
     17 NBL        -0.6120    0.0200   -1.3010 na        1 1RQ     -0.130000
     18 CBH        -0.4490   -0.8880   -2.3720 c2        1 1RQ     -0.009000
     19 CAN         0.3590   -2.0770   -2.3150 c2        1 1RQ     -0.246000
     20 CAZ         0.0230   -3.2060   -2.9720 c2        1 1RQ      0.025000
     21 OAB         0.7750   -4.3450   -2.9750 oh        1 1RQ     -0.250000
     22 CAG        -2.2390   -0.5980   -5.6790 c1        1 1RQ      0.240000
     23 CAL        -1.3410   -0.9100   -4.7620 c2        1 1RQ     -0.415000
     24 CBG        -1.2310   -0.3680   -3.4330 c2        1 1RQ     -0.034000
     25 NAW        -1.8830    0.8050   -3.0270 n2        1 1RQ     -0.132000
     26 CBD        -1.5230    1.0160   -1.7400 c2        1 1RQ      0.070000
     27 CBA        -1.9440    2.1550   -0.9170 c2        1 1RQ     -0.279000
     28 CAM        -3.2370    2.7400   -1.2340 c2        1 1RQ     -0.046000
     29 CBF        -3.9380    3.5340   -0.3980 c2        1 1RQ     -0.119000
     30 CAJ        -5.3510    3.9210   -0.6980 c3        1 1RQ     -0.202000
     31 CAD        -5.9230    4.8690    0.2680 c1        1 1RQ     -0.058000
     32 CAC        -5.0090    4.9010    2.6300 c1        1 1RQ      0.291000
     33 CAI        -4.4870    3.8970    1.9470 c2        1 1RQ     -0.481000
     34 CBE        -3.4550    3.9650    0.9130 c2        1 1RQ      0.000000
     35 CAK        -2.2130    4.4250    1.1400 c2        1 1RQ     -0.201000
     36 CAH        -1.1480    2.6180    0.0600 c1        1 1RQ      0.203000
     37 H1          2.0230   -0.2920   -0.6040 ha        1 1RQ      0.175000
     38 H2          1.2160   -0.6110    3.4840 hn        1 1RQ      0.265000
     39 H4          0.9310    3.0640   10.1810 ha        1 1RQ      0.125500
     40 H5         -1.5400   -0.1680   11.1640 hc        1 1RQ      0.099333
     41 H6         -0.4560    0.4770   12.4680 hc        1 1RQ      0.099333
     42 H7          0.1590   -0.7970   11.3190 hc        1 1RQ      0.099333
     43 H8         -2.0150    1.9170    4.5850 ha        1 1RQ      0.162000
     44 H9          0.0000   -0.3640    7.4310 hn        1 1RQ      0.241000
     45 H10         1.1250   -2.1200    8.5260 ha        1 1RQ      0.041000
     46 H11        -1.1930    1.4720    6.2120 ha        1 1RQ      0.162000
     47 H12         3.6320   -0.9490    6.1420 hc        1 1RQ      0.073250
     48 H13         2.5940   -1.8860    4.9870 hc        1 1RQ      0.073250
     49 H14         3.2740   -0.2730    4.4970 hc        1 1RQ      0.073250
     50 H15         1.9580   -0.3640    5.7560 hc        1 1RQ      0.073250
     51 H16        -0.0130   -1.8720    5.2260 ha        1 1RQ      0.080000
     52 H18         1.2730   -2.0330   -1.6990 ha        1 1RQ      0.146000
     53 H19         1.5600   -4.2170   -2.4220 ho        1 1RQ      0.220000
     54 H20        -0.8870   -3.3550   -3.5790 h4        1 1RQ      0.177000
     55 H21        -0.5620   -1.6580   -5.0290 ha        1 1RQ      0.192000
     56 H22        -3.6700    2.4710   -2.2150 ha        1 1RQ      0.168000
     57 H23        -5.4260    4.3790   -1.7270 hc        1 1RQ      0.121000
     58 H24        -5.9740    2.9810   -0.7170 hc        1 1RQ      0.121000
     59 H25        -5.3820    5.8320    0.3310 ha        1 1RQ      0.026000
     60 H26        -4.9180    2.8820    2.1070 ha        1 1RQ      0.212000
     61 H27        -1.8560    4.6800    2.1460 ha        1 1RQ      0.144500
     62 H28        -1.5090    4.6780    0.3260 ha        1 1RQ      0.144500
     63 NAX        -1.4290   -0.4750    3.3720 n3        1 1RQ     -0.264000
     64 CAY        -0.2080    0.9270    9.0300 c2        1 1RQ      0.355000
     65 H3          0.7460    2.5200   11.9480 ha        1 1RQ      0.125500
     66 H17        -2.3740   -0.2570    3.1180 hn        1 1RQ      0.231000
@<TRIPOS>BOND
     1    1    2 1   
     2    1    5 1   
     3    1   17 1   
     4    2    3 1   
     5    2   37 1   
     6    3    4 1   
     7    4   16 1   
     8    4   38 1   
     9    5   16 1   
    10    6    8 1   
    11    6   39 1   
    12    6   65 1   
    13    7    8 1   
    14    7   40 1   
    15    7   41 1   
    16    7   42 1   
    17    8   64 1   
    18    9   64 1   
    19   10   12 1   
    20   10   44 1   
    21   10   64 1   
    22   11   15 1   
    23   11   43 1   
    24   11   46 1   
    25   12   45 1   
    26   13   47 1   
    27   13   48 1   
    28   13   49 1   
    29   13   50 1   
    30   14   15 1   
    31   14   51 1   
    32   15   63 1   
    33   16   63 1   
    34   17   18 1   
    35   17   26 1   
    36   18   19 1   
    37   18   24 1   
    38   19   20 1   
    39   19   52 1   
    40   20   21 1   
    41   20   54 1   
    42   21   53 1   
    43   22   23 1   
    44   23   24 1   
    45   23   55 1   
    46   24   25 1   
    47   25   26 1   
    48   26   27 1   
    49   27   28 1   
    50   27   36 1   
    51   28   29 1   
    52   28   56 1   
    53   29   30 1   
    54   29   34 1   
    55   30   31 1   
    56   30   57 1   
    57   30   58 1   
    58   31   59 1   
    59   32   33 1   
    60   33   34 1   
    61   33   60 1   
    62   34   35 1   
    63   35   61 1   
    64   35   62 1   
    65   63   66 1   
@<TRIPOS>SUBSTRUCTURE
     1 1RQ         1 TEMP              0 ****  ****    0 ROOT
