@<TRIPOS>MOLECULE
1RQ
   66    72     1     0     0
SMALL
bcc


@<TRIPOS>ATOM
      1 C4          -0.0950     0.1600     0.0390 ca         1 1RQ       0.584800
      2 C5           1.3220     0.2210    -0.0540 ca         1 1RQ      -0.420600
      3 C6           2.0300     0.2770     1.1570 ca         1 1RQ       0.475200
      4 N1           1.4520     0.2790     2.3640 nb         1 1RQ      -0.751000
      5 N3          -0.7370     0.1570     1.2450 nb         1 1RQ      -0.768000
      6 CAQ         -3.9840    -2.9980     6.4010 cx         1 1RQ      -0.109900
      7 CAR         -5.3030    -3.2890     5.7530 cx         1 1RQ      -0.109900
      8 CBJ         -4.4060    -2.2240     5.1780 cx         1 1RQ      -0.216700
      9 OAA         -6.0310    -0.4760     5.3550 o          1 1RQ      -0.594100
     10 NBK         -3.8390     0.1880     5.4380 n          1 1RQ      -0.452800
     11 CAT         -2.4470    -0.0970     5.2030 c3         1 1RQ       0.081000
     12 CAS         -4.1970     1.5850     5.2820 c3         1 1RQ       0.074000
     13 CAO         -3.7150     2.1980     3.9670 c3         1 1RQ      -0.103400
     14 CAP         -2.2430     1.9310     3.7350 c3         1 1RQ      -0.107400
     15 CBI         -1.9500     0.4240     3.8150 c3         1 1RQ       0.174500
     16 C2           0.0590     0.2000     2.3760 ca         1 1RQ       0.881900
     17 NBL         -0.8840     0.1320    -1.1290 na         1 1RQ      -0.216100
     18 CBH         -2.1480     0.7280    -1.3080 ca         1 1RQ      -0.009200
     19 CAN         -2.9690     1.4830    -0.4690 ca         1 1RQ      -0.150000
     20 CAZ         -4.1720     1.9420    -1.0200 ca         1 1RQ       0.137100
     21 OAB         -4.9660     2.6870    -0.1750 oh         1 1RQ      -0.499100
     22 CAG         -4.5580     1.6690    -2.3490 ca         1 1RQ      -0.226000
     23 CAL         -3.7430     0.9210    -3.1850 ca         1 1RQ      -0.031000
     24 CBG         -2.5290     0.4420    -2.6800 ca         1 1RQ       0.028400
     25 NAW         -1.5240    -0.3320    -3.2990 nc         1 1RQ      -0.533100
     26 CBD         -0.5710    -0.5170    -2.3730 cd         1 1RQ       0.480400
     27 CBA          0.6390    -1.3210    -2.5820 ca         1 1RQ      -0.121900
     28 CAM          1.5040    -1.0090    -3.6090 ca         1 1RQ      -0.072000
     29 CBF          2.6520    -1.8120    -3.8460 ca         1 1RQ      -0.048000
     30 CAJ          3.5660    -1.5090    -4.8930 ca         1 1RQ      -0.111000
     31 CAD          4.6680    -2.3000    -5.1050 ca         1 1RQ      -0.128000
     32 CAC          4.9080    -3.4280    -4.2830 ca         1 1RQ      -0.118000
     33 CAI          4.0410    -3.7440    -3.2660 ca         1 1RQ      -0.122000
     34 CBE          2.8920    -2.9430    -3.0240 ca         1 1RQ      -0.026000
     35 CAK          1.9730    -3.2490    -1.9820 ca         1 1RQ      -0.119000
     36 CAH          0.8720    -2.4600    -1.7630 ca         1 1RQ      -0.106000
     37 H1           1.8430     0.2260    -1.0180 ha         1 1RQ       0.171000
     38 H2           3.1350     0.3360     1.1580 h4         1 1RQ       0.033100
     39 H4          -3.9680    -2.4850     7.3790 hc         1 1RQ       0.080950
     40 H5          -6.2350    -2.9710     6.2560 hc         1 1RQ       0.080950
     41 H6          -5.4340    -4.2280     5.1870 hc         1 1RQ       0.080950
     42 H7          -3.8970    -2.4210     4.2130 hc         1 1RQ       0.102700
     43 H8          -2.2530    -1.2020     5.2830 h1         1 1RQ       0.060700
     44 H9          -1.8570     0.4200     6.0140 h1         1 1RQ       0.060700
     45 H10         -5.3170     1.6930     5.3570 h1         1 1RQ       0.067200
     46 H11         -3.7300     2.1470     6.1420 h1         1 1RQ       0.067200
     47 H12         -3.8950     3.3030     4.0050 hc         1 1RQ       0.059700
     48 H13         -4.3120     1.7870     3.1110 hc         1 1RQ       0.059700
     49 H14         -1.6360     2.4770     4.5040 hc         1 1RQ       0.049200
     50 H15         -1.9480     2.3210     2.7260 hc         1 1RQ       0.049200
     51 H16         -2.5500    -0.0990     3.0110 h1         1 1RQ       0.094700
     52 H18         -2.7160     1.7140     0.5740 ha         1 1RQ       0.170000
     53 H19         -5.7780     2.9140    -0.6520 ho         1 1RQ       0.422000
     54 H20         -5.5180     2.0550    -2.7220 ha         1 1RQ       0.137000
     55 H21         -4.0380     0.7060    -4.2220 ha         1 1RQ       0.152000
     56 H22          1.3140    -0.1430    -4.2630 ha         1 1RQ       0.150000
     57 H23          3.3690    -0.6320    -5.5280 ha         1 1RQ       0.137000
     58 H24          5.3760    -2.0690    -5.9150 ha         1 1RQ       0.136000
     59 H25          5.7980    -4.0470    -4.4730 ha         1 1RQ       0.135000
     60 H26          4.2180    -4.6200    -2.6230 ha         1 1RQ       0.136000
     61 H27          2.1600    -4.1350    -1.3570 ha         1 1RQ       0.139000
     62 H28          0.1560    -2.7000    -0.9640 ha         1 1RQ       0.145000
     63 NAX         -0.5540     0.0720     3.6380 nu         1 1RQ      -0.811900
     64 CAY         -4.8260    -0.7930     5.3090 c          1 1RQ       0.683100
     65 H3          -3.1580    -3.7250     6.3020 hc         1 1RQ       0.080950
     66 H17          0.0330     0.3460     4.4020 hn         1 1RQ       0.423800
@<TRIPOS>BOND
     1     1     2 ar  
     2     1     5 ar  
     3     1    17 1   
     4     2     3 ar  
     5     2    37 1   
     6     3     4 ar  
     7     3    38 1   
     8     4    16 ar  
     9     5    16 ar  
    10     6     7 1   
    11     6     8 1   
    12     6    39 1   
    13     6    65 1   
    14     7     8 1   
    15     7    40 1   
    16     7    41 1   
    17     8    42 1   
    18     8    64 1   
    19     9    64 2   
    20    10    11 1   
    21    10    12 1   
    22    10    64 1   
    23    11    15 1   
    24    11    43 1   
    25    11    44 1   
    26    12    13 1   
    27    12    45 1   
    28    12    46 1   
    29    13    14 1   
    30    13    47 1   
    31    13    48 1   
    32    14    15 1   
    33    14    49 1   
    34    14    50 1   
    35    15    51 1   
    36    15    63 1   
    37    16    63 1   
    38    17    18 1   
    39    17    26 1   
    40    18    19 ar  
    41    18    24 ar  
    42    19    20 ar  
    43    19    52 1   
    44    20    21 1   
    45    20    22 ar  
    46    21    53 1   
    47    22    23 ar  
    48    22    54 1   
    49    23    24 ar  
    50    23    55 1   
    51    24    25 1   
    52    25    26 2   
    53    26    27 1   
    54    27    28 ar  
    55    27    36 ar  
    56    28    29 ar  
    57    28    56 1   
    58    29    30 ar  
    59    29    34 ar  
    60    30    31 ar  
    61    30    57 1   
    62    31    32 ar  
    63    31    58 1   
    64    32    33 ar  
    65    32    59 1   
    66    33    34 ar  
    67    33    60 1   
    68    34    35 ar  
    69    35    36 ar  
    70    35    61 1   
    71    36    62 1   
    72    63    66 1   
@<TRIPOS>SUBSTRUCTURE
     1 1RQ         1 TEMP              0 ****  ****    0 ROOT
