@<TRIPOS>MOLECULE
molecule
   66    72     1     0     0
SMALL
bcc


@<TRIPOS>ATOM
      1 C4           0.0000     0.0000     0.0000 ca         1 1RQ       0.603800
      2 C5           1.3950     0.0000     0.0000 ca         1 1RQ      -0.447600
      3 C6           2.0550     0.0000     1.2140 ca         1 1RQ       0.512200
      4 N1           1.3480    -0.0010     2.3340 nb         1 1RQ      -0.803000
      5 N3          -0.6450    -0.0000     1.1610 nb         1 1RQ      -0.805000
      6 CAQ          0.5360     1.4040    10.8590 cx         1 1RQ      -0.136400
      7 CAR         -0.4920     0.2930    10.6380 cx         1 1RQ      -0.136400
      8 CBJ          0.5700     0.5750     9.5730 cx         1 1RQ      -0.278700
      9 OAA          0.3200     2.7370     7.8220 o          1 1RQ      -0.516100
     10 NBK         -0.1550     0.4820     7.1550 n          1 1RQ      -0.457800
     11 CAT         -0.8410     0.6110     5.8620 c3         1 1RQ       0.079000
     12 CAS          0.3120    -0.8460     7.5780 c3         1 1RQ       0.081000
     13 CAO          1.1860    -1.4370     6.4670 c3         1 1RQ      -0.098400
     14 CAP          0.4040    -1.4360     5.1520 c3         1 1RQ      -0.098400
     15 CBI          0.0430    -0.0030     4.7720 c3         1 1RQ       0.233500
     16 C2           0.0250    -0.0010     2.3050 ca         1 1RQ       0.964900
     17 NBL         -0.7070     0.0060    -1.2000 na         1 1RQ      -0.187100
     18 CBH         -0.5020    -0.8360    -2.2790 ca         1 1RQ      -0.067200
     19 CAN          0.3780    -1.8770    -2.5330 ca         1 1RQ      -0.149000
     20 CAZ          0.3250    -2.5400    -3.7480 ca         1 1RQ       0.120100
     21 OAB          1.1870    -3.5590    -4.0000 oh         1 1RQ      -0.516100
     22 CAG         -0.6080    -2.1660    -4.7110 ca         1 1RQ      -0.176000
     23 CAL         -1.4810    -1.1430    -4.4740 ca         1 1RQ      -0.056000
     24 CBG         -1.4440    -0.4610    -3.2540 ca         1 1RQ       0.091400
     25 NAW         -2.1640     0.5680    -2.7420 nc         1 1RQ      -0.588100
     26 CBD         -1.7410     0.8460    -1.5340 cd         1 1RQ       0.508400
     27 CBA         -2.2910     1.9060    -0.6630 ca         1 1RQ      -0.103900
     28 CAM         -3.6290     2.2450    -0.7560 ca         1 1RQ      -0.059000
     29 CBF         -4.1460     3.2520     0.0750 ca         1 1RQ      -0.046000
     30 CAJ         -5.5000     3.6240     0.0100 ca         1 1RQ      -0.107000
     31 CAD         -5.9700     4.6050     0.8300 ca         1 1RQ      -0.129000
     32 CAC         -5.1270     5.2470     1.7340 ca         1 1RQ      -0.118000
     33 CAI         -3.8090     4.9120     1.8240 ca         1 1RQ      -0.122000
     34 CBE         -3.2880     3.9050     0.9950 ca         1 1RQ      -0.025000
     35 CAK         -1.9320     3.5380     1.0650 ca         1 1RQ      -0.122000
     36 CAH         -1.4510     2.5580     0.2580 ca         1 1RQ      -0.100000
     37 H1           1.9490     0.0010    -0.9310 ha         1 1RQ       0.159000
     38 H2           3.1380     0.0000     1.2490 h4         1 1RQ       0.036100
     39 H4           0.1610     2.4150    10.7530 hc         1 1RQ       0.073950
     40 H5          -0.3410    -0.6060    11.2220 hc         1 1RQ       0.073950
     41 H6          -1.4940     0.6250    10.3970 hc         1 1RQ       0.073950
     42 H7           1.3690    -0.1550     9.5260 hc         1 1RQ       0.083700
     43 H8          -1.7870     0.0850     5.9000 h1         1 1RQ       0.059700
     44 H9          -1.0090     1.6590     5.6440 h1         1 1RQ       0.059700
     45 H10         -0.5400    -1.4920     7.7510 h1         1 1RQ       0.077700
     46 H11          0.8950    -0.7530     8.4870 h1         1 1RQ       0.077700
     47 H12          1.4570    -2.4540     6.7250 hc         1 1RQ       0.056700
     48 H13          2.0810    -0.8370     6.3550 hc         1 1RQ       0.056700
     49 H14          1.0140    -1.8720     4.3700 hc         1 1RQ       0.055700
     50 H15         -0.5040    -2.0150     5.2730 hc         1 1RQ       0.055700
     51 H16          0.9510     0.5800     4.6770 h1         1 1RQ       0.090700
     52 H18          1.0320    -2.2370    -1.7480 ha         1 1RQ       0.146000
     53 H19          1.8400    -3.2730    -4.6170 ho         1 1RQ       0.421000
     54 H20         -0.6410    -2.6910    -5.6580 ha         1 1RQ       0.143000
     55 H21         -2.2030    -0.8600    -5.2310 ha         1 1RQ       0.148000
     56 H22         -4.2980     1.6500    -1.3660 ha         1 1RQ       0.154000
     57 H23         -6.1660     3.1330    -0.6890 ha         1 1RQ       0.136000
     58 H24         -7.0140     4.8890     0.7780 ha         1 1RQ       0.130000
     59 H25         -5.5250     6.0240     2.3760 ha         1 1RQ       0.130000
     60 H26         -3.1660     5.4210     2.5330 ha         1 1RQ       0.134000
     61 H27         -1.2720     4.0310     1.7690 ha         1 1RQ       0.136000
     62 H28         -0.4050     2.2840     0.3150 ha         1 1RQ       0.130000
     63 NAX         -0.6780    -0.0020     3.4970 nu         1 1RQ      -0.890900
     64 CAY          0.0450     1.5620     7.9360 c          1 1RQ       0.709100
     65 H3           1.3150     1.1840    11.5780 hc         1 1RQ       0.073950
     66 H17         -1.6780     0.0240     3.4880 hn         1 1RQ       0.461800
@<TRIPOS>BOND
     1    21    20 1   
     2    22    20 ar  
     3    22    23 ar  
     4    20    19 ar  
     5    13    12 1   
     6    13    14 1   
     7    12    10 1   
     8    14    15 1   
     9    23    24 ar  
    10    19    18 ar  
    11    24    18 ar  
    12    24    25 1   
    13    18    17 1   
    14    10    11 1   
    15    10    64 1   
    16    15    11 1   
    17    15    63 1   
    18     9    64 2   
    19    25    26 2   
    20    17     1 1   
    21    17    26 1   
    22     5     1 ar  
    23     5    16 ar  
    24    63    16 1   
    25    64     8 1   
    26     1     2 ar  
    27    16     4 ar  
    28    26    27 1   
    29     2     3 ar  
    30     4     3 ar  
    31    28    27 ar  
    32    28    29 ar  
    33    27    36 ar  
    34     8     6 1   
    35     8     7 1   
    36    30    29 ar  
    37    30    31 ar  
    38    29    34 ar  
    39     6     7 1   
    40    36    35 ar  
    41    31    32 ar  
    42    34    35 ar  
    43    34    33 ar  
    44    32    33 ar  
    45     2    37 1   
    46     3    38 1   
    47     6    65 1   
    48     6    39 1   
    49     7    40 1   
    50     7    41 1   
    51     8    42 1   
    52    11    43 1   
    53    11    44 1   
    54    12    45 1   
    55    12    46 1   
    56    13    47 1   
    57    13    48 1   
    58    14    49 1   
    59    14    50 1   
    60    15    51 1   
    61    63    66 1   
    62    19    52 1   
    63    21    53 1   
    64    22    54 1   
    65    23    55 1   
    66    28    56 1   
    67    30    57 1   
    68    31    58 1   
    69    32    59 1   
    70    33    60 1   
    71    35    61 1   
    72    36    62 1   
@<TRIPOS>SUBSTRUCTURE
     1 1RQ         1 TEMP              0 ****  ****    0 ROOT
