@<TRIPOS>MOLECULE
1RS
   33    36     1     0     0
SMALL
bcc


@<TRIPOS>ATOM
      1 C2           0.0000     0.0000     0.0000 cc         1 1RS       0.226700
      2 N3           1.3010     0.0000     0.0000 nd         1 1RS      -0.490100
      3 C4           1.7560     0.0000     1.2790 ca         1 1RS      -0.090900
      4 C5           3.0270     0.0000     1.8640 ca         1 1RS       0.486200
      5 N6           3.1730    -0.0010     3.1690 nb         1 1RS      -0.589000
      6 C7           2.1370    -0.0010     4.0030 ca         1 1RS       0.223800
      7 C8           0.8250    -0.0020     3.5000 ca         1 1RS      -0.200100
      8 C9           0.6260    -0.0010     2.1130 ca         1 1RS      -0.195200
      9 N10         -0.4650    -0.0020     1.2810 na         1 1RS       0.336700
     10 C11         -1.8710     0.0040     1.6930 c3         1 1RS      -0.074000
     11 C12         -2.5710    -1.2410     1.1420 c3         1 1RS      -0.039400
     12 C13         -4.0520    -1.2000     1.5240 c3         1 1RS       0.152800
     13 N14         -4.6670     0.0130     0.9720 n7         1 1RS      -0.580200
     14 C15         -4.0430     1.2240     1.5220 c3         1 1RS       0.152800
     15 C16         -2.5620     1.2540     1.1400 c3         1 1RS      -0.039400
     16 C17         -0.0610    -0.0030     4.6640 cc         1 1RS      -0.166200
     17 C18          0.7260    -0.0040     5.7530 cd         1 1RS      -0.280100
     18 N19          2.0410    -0.0030     5.3740 na         1 1RS       0.286900
     19 H1          -0.6220     0.0010    -0.8870 h5         1 1RS       0.033800
     20 H2           3.9060     0.0020     1.2290 h4         1 1RS      -0.014900
     21 H4          -1.9360     0.0050     2.7750 h1         1 1RS       0.058700
     22 H5          -2.1140    -2.1280     1.5650 hc         1 1RS       0.032200
     23 H6          -2.4770    -1.2590     0.0630 hc         1 1RS       0.032200
     24 H7          -4.1450    -1.1920     2.6030 h1         1 1RS       0.009200
     25 H8          -4.5520    -2.0720     1.1190 h1         1 1RS       0.009200
     26 H9          -5.6450     0.0170     1.1820 hn         1 1RS       0.256800
     27 H11         -4.1360     1.2180     2.6010 h1         1 1RS       0.009200
     28 H12         -4.5370     2.0990     1.1160 h1         1 1RS       0.009200
     29 H13         -2.4680     1.2700     0.0610 hc         1 1RS       0.032200
     30 H14         -2.0990     2.1380     1.5620 hc         1 1RS       0.032200
     31 H15         -1.1440    -0.0030     4.6510 ha         1 1RS       0.124000
     32 H16          0.3730    -0.0060     6.7770 h4         1 1RS       0.141000
     33 H3           2.8190    -0.0030     6.0040 hn         1 1RS       0.116700
@<TRIPOS>BOND
     1     1     2 2   
     2     1     9 1   
     3     1    19 1   
     4     2     3 1   
     5     3     4 ar  
     6     3     8 ar  
     7     4     5 ar  
     8     4    20 1   
     9     5     6 ar  
    10     6     7 ar  
    11     6    18 1   
    12     7     8 ar  
    13     7    16 1   
    14     8     9 1   
    15     9    10 1   
    16    10    11 1   
    17    10    15 1   
    18    10    21 1   
    19    11    12 1   
    20    11    22 1   
    21    11    23 1   
    22    12    13 1   
    23    12    24 1   
    24    12    25 1   
    25    13    14 1   
    26    13    26 1   
    27    14    15 1   
    28    14    27 1   
    29    14    28 1   
    30    15    29 1   
    31    15    30 1   
    32    16    17 2   
    33    16    31 1   
    34    17    18 1   
    35    17    32 1   
    36    18    33 1   
@<TRIPOS>SUBSTRUCTURE
     1 1RS         1 TEMP              0 ****  ****    0 ROOT
