@<TRIPOS>MOLECULE
molecule
   33    36     1     0     0
SMALL
bcc


@<TRIPOS>ATOM
      1 C2           0.0000     0.0000     0.0000 cc         1 1RS       0.409700
      2 N3           1.3010     0.0000     0.0000 nd         1 1RS      -0.582100
      3 C4           1.7560     0.0000     1.2790 ca         1 1RS      -0.068900
      4 C5           3.0270     0.0000     1.8640 ca         1 1RS       0.514200
      5 N6           3.1730    -0.0010     3.1690 nb         1 1RS      -0.719000
      6 C7           2.1370    -0.0010     4.0030 ca         1 1RS       0.465800
      7 C8           0.8250    -0.0020     3.5000 ca         1 1RS      -0.218100
      8 C9           0.6260    -0.0010     2.1130 ca         1 1RS      -0.028200
      9 N10         -0.4650    -0.0020     1.2810 na         1 1RS      -0.136300
     10 C11         -1.8710     0.0040     1.6930 c3         1 1RS       0.052000
     11 C12         -2.5710    -1.2410     1.1420 c3         1 1RS      -0.092400
     12 C13         -4.0520    -1.2000     1.5240 c3         1 1RS       0.159800
     13 N14         -4.6670     0.0130     0.9720 n7         1 1RS      -0.821200
     14 C15         -4.0430     1.2240     1.5220 c3         1 1RS       0.159800
     15 C16         -2.5620     1.2540     1.1400 c3         1 1RS      -0.092400
     16 C17         -0.0610    -0.0030     4.6640 cc         1 1RS      -0.196200
     17 C18          0.7260    -0.0040     5.7530 cd         1 1RS      -0.107100
     18 N19          2.0410    -0.0030     5.3740 na         1 1RS      -0.265100
     19 H1          -0.6220     0.0010    -0.8870 h5         1 1RS       0.076800
     20 H2           3.9060     0.0020     1.2290 h4         1 1RS       0.037100
     21 H4          -1.9360     0.0050     2.7750 h1         1 1RS       0.077700
     22 H5          -2.1140    -2.1280     1.5650 hc         1 1RS       0.061200
     23 H6          -2.4770    -1.2590     0.0630 hc         1 1RS       0.061200
     24 H7          -4.1450    -1.1920     2.6030 h1         1 1RS       0.037200
     25 H8          -4.5520    -2.0720     1.1190 h1         1 1RS       0.037200
     26 H9          -5.6450     0.0170     1.1820 hn         1 1RS       0.358800
     27 H11         -4.1360     1.2180     2.6010 h1         1 1RS       0.037200
     28 H12         -4.5370     2.0990     1.1160 h1         1 1RS       0.037200
     29 H13         -2.4680     1.2700     0.0610 hc         1 1RS       0.061200
     30 H14         -2.0990     2.1380     1.5620 hc         1 1RS       0.061200
     31 H15         -1.1440    -0.0030     4.6510 ha         1 1RS       0.147000
     32 H16          0.3730    -0.0060     6.7770 h4         1 1RS       0.168000
     33 H3           2.8190    -0.0030     6.0040 hn         1 1RS       0.305700
@<TRIPOS>BOND
     1     2     3 1
     2     2     1 2
     3     4     3 ar
     4     4     5 ar
     5     3     8 ar
     6     1     9 1
     7     5     6 ar
     8     8     9 1
     9     8     7 ar
    10     9    10 1
    11     6     7 ar
    12     6    18 1
    13     7    16 1
    14    10    11 1
    15    10    15 1
    16    11    12 1
    17    18    17 1
    18    12    13 1
    19    16    17 2
    20    15    14 1
    21    13    14 1
    22     1    19 1
    23     4    20 1
    24    10    21 1
    25    11    22 1
    26    11    23 1
    27    12    24 1
    28    12    25 1
    29    13    26 1
    30    14    27 1
    31    14    28 1
    32    15    29 1
    33    15    30 1
    34    16    31 1
    35    17    32 1
    36    18    33 1
@<TRIPOS>SUBSTRUCTURE
     1 1RS         1 TEMP              0 ****  ****    0 ROOT
