@<TRIPOS>MOLECULE
1RS
   33    36     1     0     0
SMALL
bcc


@<TRIPOS>ATOM
      1 C2           0.1630    -0.1510    -0.1980 cc         1 1RS       0.390700
      2 N3           1.5010    -0.1320    -0.1320 nd         1 1RS      -0.540100
      3 C4           1.8010    -0.0450     1.2380 ca         1 1RS      -0.092900
      4 C5           3.0570     0.0090     1.9040 ca         1 1RS       0.483200
      5 N6           3.1810     0.0910     3.2220 nb         1 1RS      -0.686000
      6 C7           2.0090     0.1220     3.9450 ca         1 1RS       0.419800
      7 C8           0.6560     0.0740     3.4040 ca         1 1RS      -0.191100
      8 C9           0.5680    -0.0120     2.0080 ca         1 1RS       0.003800
      9 N10         -0.4650    -0.0800     1.0730 na         1 1RS      -0.153300
     10 C11         -1.8950    -0.0840     1.2680 c3         1 1RS       0.065000
     11 C12         -2.4200     1.2080     1.9150 c3         1 1RS      -0.097400
     12 C13         -3.9410     1.1540     2.0390 c3         1 1RS       0.163800
     13 N14         -4.4140    -0.0220     2.7400 n7         1 1RS      -0.823200
     14 C15         -3.9130    -1.2650     2.1870 c3         1 1RS       0.163800
     15 C16         -2.3920    -1.3000     2.0680 c3         1 1RS      -0.097400
     16 C17         -0.2390     0.1330     4.5270 cc         1 1RS      -0.179200
     17 C18          0.5470     0.2120     5.6770 cd         1 1RS      -0.120100
     18 N19          1.8990     0.2060     5.3400 na         1 1RS      -0.273100
     19 H1          -0.4240    -0.2140    -1.1210 h5         1 1RS       0.067800
     20 H2           3.9970    -0.0160     1.3210 h4         1 1RS       0.037100
     21 H4          -2.3520    -0.1530     0.2310 h1         1 1RS       0.057700
     22 H5          -1.9540     1.3480     2.9250 hc         1 1RS       0.065700
     23 H6          -2.1460     2.0940     1.2860 hc         1 1RS       0.065700
     24 H7          -4.2850     2.0540     2.6240 h1         1 1RS       0.032200
     25 H8          -4.3810     1.2350     1.0000 h1         1 1RS       0.032200
     26 H9          -5.4160    -0.0320     2.7600 hn         1 1RS       0.368800
     27 H11         -4.3510    -1.4810     1.1660 h1         1 1RS       0.032200
     28 H12         -4.2390    -2.0940     2.8770 h1         1 1RS       0.032200
     29 H13         -1.9240    -1.3050     3.0870 hc         1 1RS       0.065700
     30 H14         -2.0980    -2.2490     1.5520 hc         1 1RS       0.065700
     31 H15         -1.3250     0.1190     4.4990 ha         1 1RS       0.164000
     32 H16          0.2380     0.2720     6.7220 h4         1 1RS       0.169000
     33 H3           2.6590     0.2530     5.9670 hn         1 1RS       0.309700
@<TRIPOS>BOND
     1     1     2 2   
     2     1     9 1   
     3     1    19 1   
     4     2     3 1   
     5     3     4 ar  
     6     3     8 ar  
     7     4     5 ar  
     8     4    20 1   
     9     5     6 ar  
    10     6     7 ar  
    11     6    18 1   
    12     7     8 ar  
    13     7    16 1   
    14     8     9 1   
    15     9    10 1   
    16    10    11 1   
    17    10    15 1   
    18    10    21 1   
    19    11    12 1   
    20    11    22 1   
    21    11    23 1   
    22    12    13 1   
    23    12    24 1   
    24    12    25 1   
    25    13    14 1   
    26    13    26 1   
    27    14    15 1   
    28    14    27 1   
    29    14    28 1   
    30    15    29 1   
    31    15    30 1   
    32    16    17 2   
    33    16    31 1   
    34    17    18 1   
    35    17    32 1   
    36    18    33 1   
@<TRIPOS>SUBSTRUCTURE
     1 1RS         1 TEMP              0 ****  ****    0 ROOT
