@<TRIPOS>MOLECULE
1RT
   16    16     1     0     0
SMALL
bcc


@<TRIPOS>ATOM
      1 N1          -0.0670    -0.0170    -0.0060 ns         1 1RT      -0.463100
      2 C2           1.3750     0.0290    -0.1500 c          1 1RT       0.832900
      3 O2           1.7990     0.1100    -1.3160 o          1 1RT      -0.590500
      4 N3           2.1880    -0.0370     0.9860 nc         1 1RT      -0.714100
      5 C4           1.6140    -0.0810     2.2020 cd         1 1RT       0.771500
      6 N4           2.4150    -0.1030     3.3270 nv         1 1RT      -0.914800
      7 C5           0.1570    -0.0690     2.3710 cd         1 1RT      -0.492800
      8 C6          -0.6240    -0.0780     1.2250 cc         1 1RT       0.138600
      9 C21         -0.5030    -0.1090     3.6750 c          1 1RT       0.658300
     10 O22         -1.4620    -0.8130     3.9940 o          1 1RT      -0.488000
     11 O23         -0.0600     0.6980     4.6890 oh         1 1RT      -0.586100
     12 H1           0.5200     1.3890     4.3380 ho         1 1RT       0.438000
     13 H2           2.0090    -0.4400     4.1690 hn         1 1RT       0.442800
     14 H4          -1.7310    -0.1280     1.3000 h4         1 1RT       0.177000
     15 H6          -0.6250    -0.0150    -0.8320 hn         1 1RT       0.348500
     16 H43          3.3960    -0.2270     3.2140 hn         1 1RT       0.442800
@<TRIPOS>BOND
     1     1     2 1   
     2     1     8 1   
     3     1    15 1   
     4     2     3 2   
     5     2     4 1   
     6     4     5 2   
     7     5     6 1   
     8     5     7 1   
     9     6    13 1   
    10     6    16 1   
    11     7     8 2   
    12     7     9 1   
    13     8    14 1   
    14     9    10 2   
    15     9    11 1   
    16    11    12 1   
@<TRIPOS>SUBSTRUCTURE
     1 1RT         1 TEMP              0 ****  ****    0 ROOT
