@<TRIPOS>MOLECULE
molecule
   16    16     1     0     0
SMALL
bcc


@<TRIPOS>ATOM
      1 N1           0.0000     0.0000     0.0000 ns         1 1RT      -0.417100
      2 C2           1.3430     0.0000     0.0000 c          1 1RT       0.819900
      3 O2           1.9300    -0.0000    -1.0690 o          1 1RT      -0.596500
      4 N3           2.0540     0.0000     1.1240 nc         1 1RT      -0.635100
      5 C4           1.4560    -0.0000     2.3080 cc         1 1RT       0.606500
      6 N4           2.1920    -0.0050     3.4640 nz         1 1RT      -0.941600
      7 C5          -0.0110    -0.0000     2.3550 cc         1 1RT      -0.409800
      8 C6          -0.6990     0.0050     1.1540 cd         1 1RT       0.097600
      9 C21         -0.7280    -0.0000     3.6390 c          1 1RT       0.888800
     10 O22         -0.0420     0.1100     4.7940 o          1 1RT      -0.808300
     11 O23         -1.9400    -0.1000     3.6590 o          1 1RT      -0.808300
     12 H1           1.9990     0.8260     3.9870 hn         1 1RT       0.545467
     13 H2           1.9490    -0.8080     4.0110 hn         1 1RT       0.545467
     14 H4          -1.7830     0.0050     1.1410 h4         1 1RT       0.210000
     15 H6          -0.4910     0.0040    -0.8720 hn         1 1RT       0.356500
     16 H43          2.3360    -0.9500     3.7640 hn         1 1RT       0.545467
@<TRIPOS>BOND
     1    10     9 1
     2    11     9 1
     3     6     5 1
     4     9     7 1
     5     5     7 1
     6     5     4 2
     7     7     8 2
     8     4     2 1
     9     8     1 1
    10     2     1 1
    11     2     3 2
    12     6    12 1
    13     6    13 1
    14     8    14 1
    15     1    15 1
    16    16     6 1
@<TRIPOS>SUBSTRUCTURE
     1 1RT         1 TEMP              0 ****  ****    0 ROOT
