@<TRIPOS>MOLECULE
1RT
   16    17     1     0     0
SMALL
bcc


@<TRIPOS>ATOM
      1 N1           0.0000     0.0000     0.0000 ns         1 1RT       0.244000
      2 C2           1.3430     0.0000     0.0000 c2         1 1RT       0.184000
      3 O2           1.9300    -0.0000    -1.0690 o          1 1RT      -0.374000
      4 N3           2.0540     0.0000     1.1240 n2         1 1RT      -0.087000
      5 C4           1.4560    -0.0000     2.3080 c2         1 1RT      -0.131000
      6 N4           2.1920    -0.0050     3.4640 nz         1 1RT       0.382000
      7 C5          -0.0110    -0.0000     2.3550 c2         1 1RT      -0.279000
      8 C6          -0.6990     0.0050     1.1540 c2         1 1RT      -0.054000
      9 C21         -0.7280    -0.0000     3.6390 c2         1 1RT       0.434000
     10 O22         -0.0420     0.1100     4.7940 o          1 1RT      -0.574500
     11 O23         -1.9400    -0.1000     3.6590 o          1 1RT      -0.574500
     12 H1           1.9990     0.8260     3.9870 hn         1 1RT       0.156000
     13 H2           1.9490    -0.8080     4.0110 DU         1 1RT       0.200500
     14 H4          -1.7830     0.0050     1.1410 h4         1 1RT       0.169000
     15 H6          -0.4910     0.0040    -0.8720 hn         1 1RT       0.104000
     16 H43          2.3360    -0.9500     3.7640 DU         1 1RT       0.200500
@<TRIPOS>BOND
     1     1     2 1   
     2     1     8 1   
     3     1    15 1   
     4     2     3 1   
     5     2     4 1   
     6     4     5 1   
     7     5     6 1   
     8     5     7 1   
     9     6    12 1   
    10     6    13 1   
    11     6    16 1   
    12     7     8 1   
    13     7     9 1   
    14     8    14 1   
    15     9    10 1   
    16     9    11 1   
    17    13    16 1   
@<TRIPOS>SUBSTRUCTURE
     1 1RT         1 TEMP              0 ****  ****    0 ROOT
