@<TRIPOS>MOLECULE
1RU
   55    59     1     0     0
SMALL
bcc


@<TRIPOS>ATOM
      1 F12         2.7830    1.5390    1.4030 f         1 1RU     -0.123900
      2 C5          3.4340    0.8180    0.4610 ca        1 1RU      0.129900
      3 C6          4.7220    0.3360    0.7550 ca        1 1RU     -0.147000
      4 C4          5.4070   -0.4100   -0.1930 ca        1 1RU     -0.102000
      5 C2          4.8220   -0.6760   -1.4350 ca        1 1RU      0.016400
      6 CL2         5.7390   -1.6090   -2.5270 cl        1 1RU     -0.077400
      7 C3          2.8430    0.5470   -0.7950 ca        1 1RU      0.005400
      8 CL1         1.2750    1.1410   -1.0870 cl        1 1RU     -0.058400
      9 C1          3.5390   -0.1990   -1.7630 ca        1 1RU     -0.062300
     10 C7          2.9620   -0.5170   -3.1190 c3        1 1RU      0.176400
     11 C8          1.7710   -1.4570   -3.0350 c3        1 1RU     -0.096100
     12 O9          2.4930    0.6700   -3.7940 os        1 1RU     -0.311900
     13 C13         3.4590    1.3290   -4.5290 ca        1 1RU     -0.095200
     14 C18         4.0750    0.7860   -5.6530 ca        1 1RU      0.107100
     15 O19         3.9670   -0.5110   -6.1420 os        1 1RU     -0.195200
     16 C20         4.7920   -0.5560   -7.2850 cc        1 1RU     -0.045900
     17 C21         5.4090    0.6550   -7.5250 cd        1 1RU      0.014600
     18 C17         4.9620    1.5560   -6.4700 ca        1 1RU     -0.259100
     19 C16         5.1840    2.8870   -6.0960 ca        1 1RU      0.488200
     20 N15         4.6110    3.4530   -5.0300 nb        1 1RU     -0.734000
     21 C14         3.7720    2.7030   -4.2280 ca        1 1RU      0.666200
     22 N22         3.2610    3.2800   -3.0720 nh        1 1RU     -0.933500
     23 C23         6.3010    0.9640   -8.5860 cd        1 1RU     -0.206100
     24 C27         7.0670    0.0680   -9.3600 cc        1 1RU     -0.129300
     25 N26         7.7780    0.8400  -10.2830 na        1 1RU      0.092400
     26 N25         7.5130    2.1510  -10.1460 nc        1 1RU     -0.507800
     27 C24         6.6240    2.2700   -9.1310 cd        1 1RU      0.314200
     28 C28         8.7040    0.2970  -11.2780 c3        1 1RU      0.064000
     29 C33         9.8820   -0.4420  -10.6250 c3        1 1RU     -0.093400
     30 C32        10.8270   -0.9640  -11.7060 c3        1 1RU      0.162800
     31 N31        10.1610   -1.7920  -12.6910 n3        1 1RU     -0.824200
     32 C30         9.0040   -1.1630  -13.2930 c3        1 1RU      0.162800
     33 C29         7.9990   -0.6480  -12.2640 c3        1 1RU     -0.093400
     34 H1          5.1720    0.5570    1.7340 ha        1 1RU      0.159000
     35 H2          6.4150   -0.7900    0.0360 ha        1 1RU      0.157000
     36 H3          3.7560   -1.0000   -3.7630 h1        1 1RU      0.082700
     37 H4          2.0400   -2.3410   -2.4100 hc        1 1RU      0.054367
     38 H5          1.5020   -1.8000   -4.0630 hc        1 1RU      0.054367
     39 H6          0.8830   -0.9490   -2.5920 hc        1 1RU      0.054367
     40 H7          4.7930   -1.5250   -7.7750 h4        1 1RU      0.191000
     41 H8          5.8570    3.5440   -6.6780 h4        1 1RU      0.029100
     42 H9          2.4610    2.8270   -2.6910 hn        1 1RU      0.425800
     43 H10         3.2800    4.2710   -3.0070 hn        1 1RU      0.425800
     44 H11         7.1550   -1.0170   -9.3160 h4        1 1RU      0.178000
     45 H12         6.2300    3.2370   -8.8180 h4        1 1RU      0.045100
     46 H13         9.1210    1.1710  -11.8670 h1        1 1RU      0.087700
     47 H14         9.5050   -1.2940  -10.0020 hc        1 1RU      0.060950
     48 H15        10.4530    0.2510   -9.9550 hc        1 1RU      0.060950
     49 H16        11.6190   -1.5970  -11.2150 h1        1 1RU      0.034700
     50 H17        11.3450   -0.0760  -12.1770 h1        1 1RU      0.034700
     51 H18        10.8110   -2.0730  -13.4020 hn        1 1RU      0.369800
     52 H20         9.2900   -0.3000  -13.9660 h1        1 1RU      0.034700
     53 H21         8.4950   -1.9380  -13.9340 h1        1 1RU      0.034700
     54 H22         7.1800   -0.1060  -12.8040 hc        1 1RU      0.060950
     55 H23         7.5410   -1.5090  -11.7110 hc        1 1RU      0.060950
@<TRIPOS>BOND
     1    1    2 1
     2    2    3 ar
     3    2    7 ar
     4    3    4 ar
     5    3   34 1
     6    4    5 ar
     7    4   35 1
     8    5    6 1
     9    5    9 ar
    10    7    8 1
    11    7    9 ar
    12    9   10 1
    13   10   11 1
    14   10   12 1
    15   10   36 1
    16   11   37 1
    17   11   38 1
    18   11   39 1
    19   12   13 1
    20   13   14 ar
    21   13   21 ar
    22   14   15 1
    23   14   18 ar
    24   15   16 1
    25   16   17 2
    26   16   40 1
    27   17   18 1
    28   17   23 1
    29   18   19 ar
    30   19   20 ar
    31   19   41 1
    32   20   21 ar
    33   21   22 1
    34   22   42 1
    35   22   43 1
    36   23   24 2
    37   23   27 1
    38   24   25 1
    39   24   44 1
    40   25   26 1
    41   25   28 1
    42   26   27 2
    43   27   45 1
    44   28   29 1
    45   28   33 1
    46   28   46 1
    47   29   30 1
    48   29   47 1
    49   29   48 1
    50   30   31 1
    51   30   49 1
    52   30   50 1
    53   31   32 1
    54   31   51 1
    55   32   33 1
    56   32   52 1
    57   32   53 1
    58   33   54 1
    59   33   55 1
@<TRIPOS>SUBSTRUCTURE
     1 1RU         1 TEMP              0 ****  ****    0 ROOT
