@<TRIPOS>MOLECULE
1RV
   28    29     1     0     0
SMALL
bcc


@<TRIPOS>ATOM
      1 N01          1.1240    -0.6040     0.5670 nz         1 1RV      -0.760400
      2 C01          1.2610     0.3760    -0.5950 c          1 1RV       0.643700
      3 O01          0.5780     1.3800    -0.5020 o          1 1RV      -0.403100
      4 C02          2.1720    -0.0760    -1.6270 cc         1 1RV      -0.294600
      5 C05          3.3840     0.5460    -1.9730 cd         1 1RV       0.110500
      6 N02          3.9960     1.6250    -1.3630 ns         1 1RV      -0.430100
      7 C06          3.9190     1.9230    -0.0080 c          1 1RV       0.711100
      8 O02          3.1510     1.2880     0.7490 o          1 1RV      -0.667100
      9 C07          4.7690     3.0570     0.5160 c3         1 1RV      -0.128300
     10 S01          6.3550     2.5380     1.0640 ss         1 1RV      -0.125400
     11 C08          7.3160     2.6450    -0.3210 cc         1 1RV       0.431800
     12 N03          8.7080     2.8650    -0.2990 na         1 1RV      -0.106400
     13 N04          9.1990     2.8780    -1.5340 nc         1 1RV      -0.482800
     14 C09          8.1150     2.6990    -2.3480 cd         1 1RV       0.521900
     15 N05          6.9280     2.5420    -1.6260 nd         1 1RV      -0.748000
     16 S02          4.0610    -0.2360    -3.3200 ss         1 1RV       0.161200
     17 C04          2.8290    -1.3430    -3.4520 cd         1 1RV      -0.169100
     18 C03          1.8690    -1.1830    -2.4830 cc         1 1RV      -0.114000
     19 H1           1.0720    -1.5620     0.2200 hn         1 1RV       0.466800
     20 H2           0.2980    -0.3830     1.1300 hn         1 1RV       0.466800
     21 H3           4.6480     2.1420    -1.9250 hn         1 1RV       0.375500
     22 H4           4.8220     3.8970    -0.2220 h1         1 1RV       0.133200
     23 H5           4.2660     3.4500     1.4450 h1         1 1RV       0.133200
     24 H6           9.3030     2.9420     0.4980 hn         1 1RV       0.348700
     25 H7           8.1650     2.6810    -3.4430 h5         1 1RV       0.084100
     26 H8           2.8040    -2.1000    -4.2400 h4         1 1RV       0.207000
     27 H9           0.9640    -1.7900    -2.3900 ha         1 1RV       0.167000
     28 H013         1.9660    -0.4990     1.1540 hn         1 1RV       0.466800
@<TRIPOS>BOND
     1     1     2 1   
     2     1    19 1   
     3     1    20 1   
     4     1    28 1   
     5     2     3 2   
     6     2     4 1   
     7     4     5 2   
     8     4    18 1   
     9     5     6 1   
    10     5    16 1   
    11     6     7 1   
    12     6    21 1   
    13     7     8 2   
    14     7     9 1   
    15     9    10 1   
    16     9    22 1   
    17     9    23 1   
    18    10    11 1   
    19    11    12 1   
    20    11    15 2   
    21    12    13 1   
    22    12    24 1   
    23    13    14 2   
    24    14    15 1   
    25    14    25 1   
    26    16    17 1   
    27    17    18 2   
    28    17    26 1   
    29    18    27 1   
@<TRIPOS>SUBSTRUCTURE
     1 1RV         1 TEMP              0 ****  ****    0 ROOT
