@<TRIPOS>MOLECULE
1RV
   28    29     1     0     0
SMALL
bcc


@<TRIPOS>ATOM
      1 N01          0.0000     0.0000     0.0000 nz         1 1RV       0.213600
      2 C01          1.3480     0.0000     0.0000 c          1 1RV       0.393700
      3 O01          1.9570     0.0000     1.0530 o          1 1RV      -0.518100
      4 C02          2.0800     0.0010    -1.2710 cc         1 1RV      -0.378600
      5 C05          3.4480     0.0010    -1.3570 cd         1 1RV       0.125500
      6 N02          4.3070     0.0000    -0.2690 ns         1 1RV       0.040900
      7 C06          5.6410     0.0000    -0.4630 c          1 1RV       0.555100
      8 O02          6.0900     0.0010    -1.5890 o          1 1RV      -0.535100
      9 C07          6.5750     0.0000     0.7200 c3         1 1RV       0.013700
     10 S01          8.2880     0.0000     0.1360 ss         1 1RV      -0.303400
     11 C08          9.1380    -0.0010     1.6800 cc         1 1RV       0.366800
     12 N03         10.4770    -0.0010     1.8510 na         1 1RV       0.364600
     13 N04         10.6980    -0.0020     3.2380 nc         1 1RV      -0.672800
     14 C09          9.5250    -0.0020     3.8120 cd         1 1RV       0.626900
     15 N05          8.5790     0.0040     2.8720 nd         1 1RV      -0.735000
     16 S02          3.9490     0.0010    -2.9870 ss         1 1RV      -0.037800
     17 C04          2.2950     0.0010    -3.5750 cd         1 1RV       0.016900
     18 C03          1.4360    -0.0050    -2.5660 cc         1 1RV      -0.115000
     19 H1          -0.3340     0.0020     0.9440 hn         1 1RV       0.244133
     20 H2          -0.3340    -0.8180    -0.4700 hn         1 1RV       0.244133
     21 H3           3.9380    -0.0280     0.6610 hn         1 1RV       0.213500
     22 H4           6.3970    -0.8850     1.3200 h1         1 1RV       0.075700
     23 H5           6.3970     0.8850     1.3200 h1         1 1RV       0.075700
     24 H6          11.1740    -0.0010     1.1330 hn         1 1RV       0.168700
     25 H7           9.3490    -0.0010     4.8800 h5         1 1RV       0.029100
     26 H8           2.0150    -0.0000    -4.6220 h4         1 1RV       0.172000
     27 H9           0.3610    -0.0060    -2.6970 ha         1 1RV       0.110000
     28 H013        -0.3340     0.8160    -0.4730 hn         1 1RV       0.244133
@<TRIPOS>BOND
     1     1     2 1   
     2     1    19 1   
     3     1    20 1   
     4     1    28 1   
     5     2     3 2   
     6     2     4 1   
     7     4     5 2   
     8     4    18 1   
     9     5     6 1   
    10     5    16 1   
    11     6     7 1   
    12     6    21 1   
    13     7     8 2   
    14     7     9 1   
    15     9    10 1   
    16     9    22 1   
    17     9    23 1   
    18    10    11 1   
    19    11    12 1   
    20    11    15 2   
    21    12    13 1   
    22    12    24 1   
    23    13    14 2   
    24    14    15 1   
    25    14    25 1   
    26    16    17 1   
    27    17    18 2   
    28    17    26 1   
    29    18    27 1   
@<TRIPOS>SUBSTRUCTURE
     1 1RV         1 TEMP              0 ****  ****    0 ROOT
