@<TRIPOS>MOLECULE
molecule
   28    29     1     0     0
SMALL
bcc


@<TRIPOS>ATOM
      1 N01          0.0000     0.0000     0.0000 nz         1 1RV      -0.670400
      2 C01          1.3480     0.0000     0.0000 c          1 1RV       0.540700
      3 O01          1.9570     0.0000     1.0530 o          1 1RV      -0.492100
      4 C02          2.0800     0.0010    -1.2710 cc         1 1RV      -0.350600
      5 C05          3.4480     0.0010    -1.3570 cd         1 1RV       0.177500
      6 N02          4.3070     0.0000    -0.2690 ns         1 1RV      -0.423100
      7 C06          5.6410     0.0000    -0.4630 c          1 1RV       0.668100
      8 O02          6.0900     0.0010    -1.5890 o          1 1RV      -0.548100
      9 C07          6.5750     0.0000     0.7200 c3         1 1RV      -0.092300
     10 S01          8.2880     0.0000     0.1360 ss         1 1RV      -0.177400
     11 C08          9.1380    -0.0010     1.6800 cd         1 1RV       0.525800
     12 N03         10.4770    -0.0010     1.8510 na         1 1RV      -0.144400
     13 N04         10.6980    -0.0020     3.2380 nd         1 1RV      -0.517800
     14 C09          9.5250    -0.0020     3.8120 cc         1 1RV       0.579900
     15 N05          8.5790     0.0040     2.8720 nc         1 1RV      -0.792000
     16 S02          3.9490     0.0010    -2.9870 ss         1 1RV       0.175200
     17 C04          2.2950     0.0010    -3.5750 cd         1 1RV      -0.113100
     18 C03          1.4360    -0.0050    -2.5660 cc         1 1RV      -0.142000
     19 H1          -0.3340     0.0020     0.9440 hn         1 1RV       0.476467
     20 H2          -0.3340    -0.8180    -0.4700 hn         1 1RV       0.476467
     21 H3           3.9380    -0.0280     0.6610 hn         1 1RV       0.368500
     22 H4           6.3970    -0.8850     1.3200 h1         1 1RV       0.112200
     23 H5           6.3970     0.8850     1.3200 h1         1 1RV       0.112200
     24 H6          11.1740    -0.0010     1.1330 hn         1 1RV       0.344700
     25 H7           9.3490    -0.0010     4.8800 h5         1 1RV       0.087100
     26 H8           2.0150    -0.0000    -4.6220 h4         1 1RV       0.202000
     27 H9           0.3610    -0.0060    -2.6970 ha         1 1RV       0.139000
     28 H013        -0.3340     0.8160    -0.4730 hn         1 1RV       0.476467
@<TRIPOS>BOND
     1    14    15 1   
     2    14    13 2   
     3    15    11 2   
     4    13    12 1   
     5    17    16 1   
     6    17    18 2   
     7    16     5 1   
     8    18     4 1   
     9    12    11 1   
    10    11    10 1   
    11     8     7 2   
    12     5     4 2   
    13     5     6 1   
    14     4     2 1   
    15    10     9 1   
    16     7     6 1   
    17     7     9 1   
    18     2     3 2   
    19     2     1 1   
    20     1    19 1   
    21     1    20 1   
    22     6    21 1   
    23     9    22 1   
    24     9    23 1   
    25    12    24 1   
    26    14    25 1   
    27    17    26 1   
    28    18    27 1   
    29    28     1 1   
@<TRIPOS>SUBSTRUCTURE
     1 1RV         1 TEMP              0 ****  ****    0 ROOT
