@<TRIPOS>MOLECULE
1RY
   37    38     1     0     0
SMALL
bcc


@<TRIPOS>ATOM
      1 OAC        -2.1460    0.2280   -5.4630 o         1 1RY     -0.908500
      2 PAZ        -1.6160   -0.0400   -4.1040 p5        1 1RY      1.598800
      3 OAF        -2.2470    1.1070   -3.1110 oh        1 1RY     -0.816400
      4 OAG        -1.8890   -1.3630   -3.4910 o         1 1RY     -0.908500
      5 OAQ        -0.0690    0.4240   -3.9270 os        1 1RY     -0.839800
      6 PBB         1.5600    0.6560   -3.8120 p5        1 1RY      1.734800
      7 OAI         2.0300    0.0270   -2.5620 o         1 1RY     -0.913000
      8 OAE         2.1450    0.2870   -5.1170 o         1 1RY     -0.913000
      9 OAR         1.7240    2.3000   -3.6230 os        1 1RY     -0.822800
     10 PBA         2.1010    3.8560   -3.5220 p5        1 1RY      1.606800
     11 OAH         0.9720    4.7390   -3.8800 o         1 1RY     -0.893000
     12 OAD         3.4660    4.1200   -4.0350 o         1 1RY     -0.893000
     13 OAO         2.2570    4.0880   -1.8510 os        1 1RY     -0.574200
     14 CAL         3.3640    4.7600   -1.3830 c3        1 1RY      0.219400
     15 CAW         2.9150    5.9850   -0.5640 c3        1 1RY      0.244200
     16 OAP         3.9570    6.9600   -0.5600 os        1 1RY     -0.418600
     17 SAS         2.5520    5.5940    1.1970 ss        1 1RY     -0.402200
     18 CAM         3.3690    7.0350    1.7920 c3        1 1RY     -0.053300
     19 CAX         3.8010    7.8660    0.5590 c3        1 1RY      0.307500
     20 NAY         5.0150    8.6300    0.7610 n         1 1RY     -0.398000
     21 CAK         6.2510    8.0910    0.4990 cc        1 1RY     -0.003400
     22 CAU         7.4090    8.7730    0.7950 cd        1 1RY     -0.137100
     23 FAJ         8.6110    8.2100    0.5060 f         1 1RY     -0.193500
     24 CAV         4.9450    9.9580    1.3660 cc        1 1RY      0.423000
     25 OAB         3.7790   10.3960    1.5910 o         1 1RY     -0.485000
     26 NAN         6.0740   10.6540    1.6690 nd        1 1RY     -0.663300
     27 CAT         7.3410   10.1270    1.4250 cd        1 1RY      0.738600
     28 NAA         8.4670   10.7500    1.7190 n2        1 1RY     -0.958100
     29 H5          3.9550    4.0890   -0.6970 h1        1 1RY      0.046200
     30 H6          4.0230    5.1120   -2.2290 h1        1 1RY      0.046200
     31 H7          1.9810    6.4300   -0.9890 h2        1 1RY      0.084700
     32 H8          2.6850    7.6490    2.4210 h1        1 1RY      0.060700
     33 H9          4.2450    6.7400    2.4160 h1        1 1RY      0.060700
     34 H10         2.9800    8.6010    0.3000 h2        1 1RY      0.085700
     35 H11         6.2690    7.0910    0.0230 h4        1 1RY      0.168000
     36 H12         8.3260   11.6470    2.1350 hn        1 1RY      0.335400
     37 H13        -1.6520    1.8310   -2.9570 ho        1 1RY      0.431000
@<TRIPOS>BOND
     1    1    2 1   
     2    2    3 1   
     3    2    4 1   
     4    2    5 1   
     5    3   37 1   
     6    5    6 1   
     7    6    7 1   
     8    6    8 1   
     9    6    9 1   
    10    9   10 1   
    11   10   11 1   
    12   10   12 1   
    13   10   13 1   
    14   13   14 1   
    15   14   15 1   
    16   14   29 1   
    17   14   30 1   
    18   15   16 1   
    19   15   17 1   
    20   15   31 1   
    21   16   19 1   
    22   17   18 1   
    23   18   19 1   
    24   18   32 1   
    25   18   33 1   
    26   19   20 1   
    27   19   34 1   
    28   20   21 1   
    29   20   24 1   
    30   21   22 2   
    31   21   35 1   
    32   22   23 1   
    33   22   27 1   
    34   24   25 1   
    35   24   26 2   
    36   26   27 1   
    37   27   28 2   
    38   28   36 1   
@<TRIPOS>SUBSTRUCTURE
     1 1RY         1 TEMP              0 ****  ****    0 ROOT
