@<TRIPOS>MOLECULE
1RY
   38    40     1     0     0
SMALL
bcc


@<TRIPOS>ATOM
      1 OAC         -1.7910     2.1550     0.5580 o          1 1RY      -0.831300
      2 PAZ         -0.8280     1.3760     1.3170 p5         1 1RY       1.751500
      3 OAF         -0.9240     1.3870     2.9620 op         1 1RY      -0.385400
      4 OAG         -1.5280     0.3240     2.4090 op         1 1RY      -0.385400
      5 OAQ          0.4420     0.7830     0.7430 os         1 1RY      -0.756800
      6 PBB          1.9940     0.2890    -0.0010 p5         1 1RY       1.696800
      7 OAI          2.5340    -0.7440     0.8840 o          1 1RY      -0.862000
      8 OAE          1.5770     0.0280    -1.3820 o          1 1RY      -0.862000
      9 OAR          2.6940     1.7140     0.1840 os         1 1RY      -0.813800
     10 PBA          3.0890     3.2880     0.4870 p5         1 1RY       1.595800
     11 OAH          3.6960     3.8820    -0.7170 o          1 1RY      -0.869500
     12 OAD          1.9250     3.8260     1.2150 o          1 1RY      -0.869500
     13 OAO          4.3100     3.1030     1.5890 os         1 1RY      -0.587200
     14 CAL          5.6260     3.2970     1.1860 c3         1 1RY       0.194400
     15 CAW          6.3460     4.1520     2.2370 c3         1 1RY       0.257200
     16 OAP          7.2950     4.9850     1.5910 os         1 1RY      -0.414600
     17 SAS          7.2560     3.1430     3.4740 ss         1 1RY      -0.428200
     18 CAM          8.6950     4.1590     3.3850 c3         1 1RY      -0.049300
     19 CAX          8.3380     5.3960     2.5230 c3         1 1RY       0.298500
     20 NAY          9.4300     5.9840     1.7950 n          1 1RY      -0.397000
     21 CAK         10.0170     5.2650     0.7640 cc         1 1RY      -0.066400
     22 CAU         11.1470     5.7420     0.1500 cd         1 1RY      -0.130100
     23 FAJ         11.7010     5.0730    -0.9000 f          1 1RY      -0.231500
     24 CAV         10.2370     7.0550     2.4280 c          1 1RY       0.798900
     25 OAB          9.7490     7.5110     3.5090 o          1 1RY      -0.798500
     26 NAN         11.4240     7.4410     1.8910 nc         1 1RY      -0.827100
     27 CAT         11.8390     6.9640     0.6570 cd         1 1RY       0.231500
     28 NAA         11.8190     8.0160    -0.4610 nz         1 1RY      -0.777600
     29 H5           5.6660     3.8170     0.1860 h1         1 1RY       0.057200
     30 H6           6.1510     2.3020     1.1240 h1         1 1RY       0.057200
     31 H7           5.6180     4.7770     2.8130 h2         1 1RY       0.071700
     32 H8           9.5370     3.5830     2.9360 h1         1 1RY       0.065700
     33 H9           8.9990     4.4970     4.4020 h1         1 1RY       0.065700
     34 H10          7.9020     6.2000     3.1900 h2         1 1RY       0.090700
     35 H11          9.5240     4.3220     0.4670 h4         1 1RY       0.130000
     36 H12         10.9210     8.4270    -0.7720 hn         1 1RY       0.326467
     37 H13         12.2540     7.5710    -1.2630 hn         1 1RY       0.326467
     38 HAA3        12.4100     8.7810    -0.1510 hn         1 1RY       0.326467
@<TRIPOS>BOND
     1     1     2 2   
     2     2     3 1   
     3     2     4 1   
     4     2     5 1   
     5     3     4 1   
     6     5     6 1   
     7     6     7 1   
     8     6     8 1   
     9     6     9 1   
    10     9    10 1   
    11    10    11 1   
    12    10    12 1   
    13    10    13 1   
    14    13    14 1   
    15    14    15 1   
    16    14    29 1   
    17    14    30 1   
    18    15    16 1   
    19    15    17 1   
    20    15    31 1   
    21    16    19 1   
    22    17    18 1   
    23    18    19 1   
    24    18    32 1   
    25    18    33 1   
    26    19    20 1   
    27    19    34 1   
    28    20    21 1   
    29    20    24 1   
    30    21    22 2   
    31    21    35 1   
    32    22    23 1   
    33    22    27 1   
    34    24    25 2   
    35    24    26 1   
    36    26    27 2   
    37    27    28 1   
    38    28    36 1   
    39    28    37 1   
    40    28    38 1   
@<TRIPOS>SUBSTRUCTURE
     1 1RY         1 TEMP              0 ****  ****    0 ROOT
