@<TRIPOS>MOLECULE
1RZ
   37    38     1     0     0
SMALL
bcc


@<TRIPOS>ATOM
      1 O3G         3.1370   -2.4020    3.6900 oh        1 1RZ     -0.816400
      2 PG          4.4170   -1.3800    3.5500 p5        1 1RZ      1.598800
      3 O1G         5.5530   -2.0120    4.2630 o         1 1RZ     -0.909000
      4 PB          4.7730   -1.3740    0.3050 p5        1 1RZ      1.734800
      5 O2B         6.2160   -1.1410    0.0900 o         1 1RZ     -0.913500
      6 O1B         3.7610   -0.4480   -0.2380 o         1 1RZ     -0.913500
      7 O3A         4.4090   -2.8880   -0.2770 os        1 1RZ     -0.822800
      8 PA          4.1960   -4.2820   -1.0430 p5        1 1RZ      1.606800
      9 O1A         4.3110   -5.4500   -0.1450 o         1 1RZ     -0.893500
     10 O2A         4.8600   -4.2740   -2.3680 o         1 1RZ     -0.893500
     11 O5'         2.5470   -4.2460   -1.4200 os        1 1RZ     -0.575200
     12 C5'         2.1610   -4.4750   -2.7220 c3        1 1RZ      0.216400
     13 C4'         1.1560   -5.6410   -2.7640 c3        1 1RZ      0.247200
     14 O4'         1.2300   -6.2850   -4.0340 os        1 1RZ     -0.420600
     15 S3'        -0.5900   -5.1060   -2.5370 ss        1 1RZ     -0.410200
     16 C2'        -1.1840   -6.1360   -3.8360 c3        1 1RZ     -0.050300
     17 C1'         0.0050   -7.0000   -4.3240 c3        1 1RZ      0.311500
     18 N1         -0.0540   -7.3430   -5.7290 n         1 1RZ     -0.410000
     19 C2         -0.8440   -8.4920   -6.1660 cc        1 1RZ      0.421000
     20 O2         -1.3740   -9.1730   -5.2380 o         1 1RZ     -0.497000
     21 N3         -0.9940   -8.7840   -7.4880 nd        1 1RZ     -0.667300
     22 C4         -0.3950   -7.9830   -8.4640 cd        1 1RZ      0.742600
     23 N4         -0.5120   -8.1940   -9.7640 n2        1 1RZ     -0.982100
     24 C5          0.4160   -6.8250   -8.0190 cd        1 1RZ     -0.401600
     25 C6          0.5430   -6.5580   -6.6900 cc        1 1RZ      0.030600
     26 O3B         4.5380   -1.4950    1.9340 os        1 1RZ     -0.839800
     27 O2C         3.9680   -0.0380    3.9950 o         1 1RZ     -0.909000
     28 H4          3.0450   -4.7340   -3.3750 h1        1 1RZ      0.047200
     29 H5          1.6410   -3.5630   -3.1320 h1        1 1RZ      0.047200
     30 H6          1.3670   -6.3820   -1.9520 h2        1 1RZ      0.082700
     31 H7         -1.9940   -6.8090   -3.4720 h1        1 1RZ      0.061200
     32 H8         -1.5970   -5.5060   -4.6570 h1        1 1RZ      0.061200
     33 H9          0.0210   -7.9690   -3.7380 h2        1 1RZ      0.080700
     34 H10        -1.0710   -8.9920   -9.9870 hn        1 1RZ      0.327400
     35 H11         3.0060   -2.9370    2.9170 ho        1 1RZ      0.431000
     36 H12         0.9120   -6.2000   -8.7670 ha        1 1RZ      0.121000
     37 H13         1.1460   -5.7070   -6.3160 h4        1 1RZ      0.154000
@<TRIPOS>BOND
     1    1    2 1   
     2    1   35 1   
     3    2    3 1   
     4    2   26 1   
     5    2   27 1   
     6    4    5 1   
     7    4    6 1   
     8    4    7 1   
     9    4   26 1   
    10    7    8 1   
    11    8    9 1   
    12    8   10 1   
    13    8   11 1   
    14   11   12 1   
    15   12   13 1   
    16   12   28 1   
    17   12   29 1   
    18   13   14 1   
    19   13   15 1   
    20   13   30 1   
    21   14   17 1   
    22   15   16 1   
    23   16   17 1   
    24   16   31 1   
    25   16   32 1   
    26   17   18 1   
    27   17   33 1   
    28   18   19 1   
    29   18   25 1   
    30   19   20 1   
    31   19   21 2   
    32   21   22 1   
    33   22   23 2   
    34   22   24 1   
    35   23   34 1   
    36   24   25 2   
    37   24   36 1   
    38   25   37 1   
@<TRIPOS>SUBSTRUCTURE
     1 1RZ         1 TEMP              0 ****  ****    0 ROOT
