@<TRIPOS>MOLECULE
1RZ
   38    40     1     0     0
SMALL
bcc


@<TRIPOS>ATOM
      1 O3G         -1.8180     0.0790     2.0750 op         1 1RZ      -0.386400
      2 PG          -0.2300     0.3870     2.4930 p5         1 1RZ       1.751500
      3 O1G         -1.5800     1.3330     2.4880 op         1 1RZ      -0.386400
      4 PB           1.7740     0.7470    -0.1040 p5         1 1RZ       1.695800
      5 O2B          2.6490    -0.4240    -0.0090 o          1 1RZ      -0.862000
      6 O1B          0.9040     1.0080    -1.2530 o          1 1RZ      -0.862000
      7 O3A          2.4100     2.0810     0.5030 os         1 1RZ      -0.813800
      8 PA           2.7720     3.4510     1.3510 p5         1 1RZ       1.594800
      9 O1A          2.9020     4.5860     0.4210 o          1 1RZ      -0.869500
     10 O2A          1.8810     3.4020     2.5260 o          1 1RZ      -0.869500
     11 O5'          4.2980     3.1000     1.8830 os         1 1RZ      -0.586200
     12 C5'          5.3910     3.6450     1.2190 c3         1 1RZ       0.193400
     13 C4'          6.4080     4.1390     2.2560 c3         1 1RZ       0.259200
     14 O4'          7.1460     5.2190     1.7050 os         1 1RZ      -0.424600
     15 S3'          7.5970     2.8360     2.7530 ss         1 1RZ      -0.421200
     16 C2'          8.9930     3.8910     2.5540 c3         1 1RZ      -0.038300
     17 C1'          8.4630     5.3300     2.3190 c3         1 1RZ       0.306500
     18 N1           9.3480     6.1360     1.5210 n          1 1RZ      -0.417000
     19 C2          10.2380     7.1210     2.1790 c          1 1RZ       0.798900
     20 O2          10.2280     7.0700     3.4500 o          1 1RZ      -0.810500
     21 N3          10.9630     8.0020     1.4430 nc         1 1RZ      -0.827100
     22 C4          10.9950     7.9010     0.0560 cd         1 1RZ       0.226500
     23 N4          12.3700     7.5310    -0.5040 nz         1 1RZ      -0.759600
     24 C5           9.9570     7.0730    -0.5940 cd         1 1RZ      -0.379600
     25 C6           9.1490     6.2730     0.1560 cc         1 1RZ      -0.024400
     26 O3B          0.6360     0.4870     1.2540 os         1 1RZ      -0.756800
     27 O2C          0.1760    -0.2410     3.7380 o          1 1RZ      -0.829300
     28 H4           5.8870     2.8520     0.5910 h1         1 1RZ       0.055200
     29 H5           5.0720     4.5080     0.5670 h1         1 1RZ       0.055200
     30 H6           5.8950     4.4730     3.1930 h2         1 1RZ       0.069700
     31 H7           9.6230     3.8840     3.4720 h1         1 1RZ       0.063200
     32 H8           9.6140     3.5390     1.6980 h1         1 1RZ       0.063200
     33 H9           8.3230     5.8320     3.3250 h2         1 1RZ       0.083700
     34 H10         12.3150     7.7170    -1.5010 hn         1 1RZ       0.301467
     35 H11         12.7720     6.5730    -0.3920 hn         1 1RZ       0.301467
     36 H12          9.7870     7.1800    -1.6700 ha         1 1RZ       0.078000
     37 H13          8.2910     5.7230    -0.2730 h4         1 1RZ       0.123000
     38 H43         13.0410     8.1780    -0.0970 hn         1 1RZ       0.301467
@<TRIPOS>BOND
     1     1     2 1   
     2     1     3 1   
     3     2     3 1   
     4     2    26 1   
     5     2    27 2   
     6     4     5 1   
     7     4     6 1   
     8     4     7 1   
     9     4    26 1   
    10     7     8 1   
    11     8     9 1   
    12     8    10 1   
    13     8    11 1   
    14    11    12 1   
    15    12    13 1   
    16    12    28 1   
    17    12    29 1   
    18    13    14 1   
    19    13    15 1   
    20    13    30 1   
    21    14    17 1   
    22    15    16 1   
    23    16    17 1   
    24    16    31 1   
    25    16    32 1   
    26    17    18 1   
    27    17    33 1   
    28    18    19 1   
    29    18    25 1   
    30    19    20 2   
    31    19    21 1   
    32    21    22 2   
    33    22    23 1   
    34    22    24 1   
    35    23    34 1   
    36    23    35 1   
    37    23    38 1   
    38    24    25 2   
    39    24    36 1   
    40    25    37 1   
@<TRIPOS>SUBSTRUCTURE
     1 1RZ         1 TEMP              0 ****  ****    0 ROOT
