@<TRIPOS>MOLECULE
molecule
   38    39     1     0     0
SMALL
bcc


@<TRIPOS>ATOM
      1 O3G          0.0000     0.0000     0.0000 o          1 1RZ      -0.725167
      2 PG           1.6100     0.0000     0.0000 p5         1 1RZ       1.310900
      3 O1G          2.1470     0.0000     1.5180 o          1 1RZ      -0.725167
      4 PB           3.5470     1.7120    -1.4500 p5         1 1RZ       1.520800
      5 O2B          4.6340     2.0390    -0.3080 o          1 1RZ      -0.808500
      6 O1B          4.0270     0.5850    -2.2800 o          1 1RZ      -0.808500
      7 O3A          3.3360     3.0110    -2.3780 os         1 1RZ      -0.726800
      8 PA           4.1580     3.6560    -3.6020 p5         1 1RZ       1.430800
      9 O1A          5.4780     4.3840    -3.0390 o          1 1RZ      -0.841500
     10 O2A          4.5500     2.5880    -4.5500 o          1 1RZ      -0.841500
     11 O5'          3.2340     4.7330    -4.3620 os         1 1RZ      -0.590200
     12 C5'          3.6400     5.4040    -5.5560 c3         1 1RZ       0.238400
     13 C4'          2.5310     6.3550    -6.0100 c3         1 1RZ       0.255200
     14 O4'          2.2560     7.3390    -4.9960 os         1 1RZ      -0.418600
     15 S3'          0.9250     5.4650    -6.1530 ss         1 1RZ      -0.348200
     16 C2'         -0.0690     6.9700    -5.7760 c3         1 1RZ      -0.015300
     17 C1'          0.9020     7.7260    -4.8360 c3         1 1RZ       0.324500
     18 N1           0.5030     7.4750    -3.4490 n          1 1RZ      -0.375000
     19 C2          -0.7240     7.8360    -3.0290 c          1 1RZ       0.845900
     20 O2          -1.4930     8.3710    -3.8120 o          1 1RZ      -0.752500
     21 N3          -1.1130     7.6200    -1.7740 nc         1 1RZ      -0.803100
     22 C4          -0.2970     7.0410    -0.9030 cc         1 1RZ       0.302500
     23 N4          -0.7100     6.8220     0.3910 nz         1 1RZ      -0.667600
     24 C5           0.9950     6.6500    -1.3110 cc         1 1RZ      -0.322600
     25 C6           1.3730     6.8720    -2.5920 cd         1 1RZ       0.043600
     26 O3B          2.1480     1.3130    -0.7600 os         1 1RZ      -0.728800
     27 O2C          2.1020    -1.2100    -0.6980 o          1 1RZ      -0.725167
     28 H4           3.8290     4.6740    -6.3340 h1         1 1RZ       0.043200
     29 H5           4.5430     5.9690    -5.3640 h1         1 1RZ       0.043200
     30 H6           2.7870     6.8330    -6.9470 h2         1 1RZ       0.035700
     31 H7          -0.2640     7.5420    -6.6750 h1         1 1RZ       0.082200
     32 H8          -0.9860     6.7110    -5.2600 h1         1 1RZ       0.082200
     33 H9           0.8210     8.7870    -5.0380 h2         1 1RZ       0.058700
     34 H10         -1.6440     7.1610     0.5060 hn         1 1RZ       0.410800
     35 H11         -0.1000     7.3040     1.0220 hn         1 1RZ       0.410800
     36 H12          1.6720     6.1740    -0.6120 ha         1 1RZ       0.155000
     37 H13          2.3610     6.5810    -2.9290 h4         1 1RZ       0.220000
     38 H43         -0.6850     5.8410     0.5880 hn         1 1RZ       0.410800
@<TRIPOS>BOND
     1     3     2 1   
     2     9     8 1   
     3    27     2 1   
     4     2     1 1   
     5     2    26 1   
     6    23    22 1   
     7     8    10 1   
     8     8     7 1   
     9     8    11 1   
    10    24    22 1   
    11    24    25 2   
    12    26     4 1   
    13     7     4 1   
    14    22    21 2   
    15    25    18 1   
    16     4     5 1   
    17     4     6 1   
    18    11    12 1   
    19    21    19 1   
    20    18    19 1   
    21    18    17 1   
    22    19    20 2   
    23    12    13 1   
    24    15    16 1   
    25    15    13 1   
    26    16    17 1   
    27    13    14 1   
    28    17    14 1   
    29    12    28 1   
    30    12    29 1   
    31    13    30 1   
    32    16    31 1   
    33    16    32 1   
    34    17    33 1   
    35    23    34 1   
    36    23    35 1   
    37    24    36 1   
    38    25    37 1   
    39    38    23 1   
@<TRIPOS>SUBSTRUCTURE
     1 1RZ         1 TEMP              0 ****  ****    0 ROOT
