@<TRIPOS>MOLECULE
molecule
   41    42     1     0     0
SMALL
bcc


@<TRIPOS>ATOM
      1 OAE          0.0000     0.0000     0.0000 oh         1 1S0      -0.604800
      2 OAG          3.8680     3.9870    -4.3830 os         1 1S0      -0.723800
      3 OAH          2.7420     0.5400     4.1140 o          1 1S0      -0.757500
      4 OAJ          2.0610     2.2310    -5.1370 o          1 1S0      -0.843500
      5 OAK          5.4220     6.0270    -4.9640 os         1 1S0      -0.718800
      6 OAL          3.8200     5.0290    -6.7960 o          1 1S0      -0.741000
      7 OAO          7.7190     6.1580    -6.0000 o          1 1S0      -0.656500
      8 OAI          4.3740     1.5130    -4.4220 o          1 1S0      -0.843500
      9 PAA          3.3020     2.4980    -4.1460 p5         1 1S0       1.441800
     10 PAB          4.7560     4.6750    -5.5340 p5         1 1S0       1.544800
     11 OAM          5.8240     3.7410    -5.9600 o          1 1S0      -0.741000
     12 PAC          6.6140     6.9850    -5.4660 p5         1 1S0       1.297900
     13 OAP          6.0670     7.9610    -6.6230 o          1 1S0      -0.656500
     14 OAN          7.1510     7.8660    -4.2290 o          1 1S0      -0.656500
     15 OAF          2.8140     2.3450    -2.6200 os         1 1S0      -0.597200
     16 CAX          2.3560     1.1080    -2.0700 c3         1 1S0       0.240400
     17 CAU          1.9700     1.3140    -0.6040 c3         1 1S0       0.132100
     18 CAT          1.4280     0.0000     0.0000 c3         1 1S0       0.097100
     19 CAV          1.9700     0.0000     1.4470 c3         1 1S0      -0.137400
     20 CAW          2.7750     1.3150     1.5460 c3         1 1S0       0.316500
     21 OAD          3.1390     1.6300     0.1840 os         1 1S0      -0.392600
     22 NAQ          3.9740     1.1190     2.3650 n          1 1S0      -0.382000
     23 CAY          5.2050     1.3390     1.8260 cc         1 1S0      -0.009400
     24 CBA          6.3060     1.1610     2.5950 cc         1 1S0      -0.322600
     25 CBB          6.1450     0.7500     3.9330 cc         1 1S0       0.191500
     26 NAS          7.2450     0.5600     4.7370 nz         1 1S0      -0.632600
     27 NAR          4.9250     0.5470     4.4150 nd         1 1S0      -0.840100
     28 CAZ          3.8520     0.7270     3.6460 c          1 1S0       0.847900
     29 H1          -0.3140    -0.8640    -0.2080 ho         1 1S0       0.385000
     30 H6           3.1460     0.3700    -2.1350 h1         1 1S0       0.031200
     31 H7           1.4930     0.7630    -2.6260 h1         1 1S0       0.031200
     32 H8           1.2320     2.1010    -0.5100 h1         1 1S0       0.067700
     33 H9           1.8130    -0.8530    -0.5460 h1         1 1S0       0.041700
     34 H10          1.1520     0.0030     2.1570 hc         1 1S0       0.063200
     35 H11          2.6180    -0.8530     1.6070 hc         1 1S0       0.063200
     36 H12          2.1560     2.1030     1.9590 h2         1 1S0       0.060700
     37 H13          5.3030     1.6550     0.7950 h4         1 1S0       0.185000
     38 H14          7.2950     1.3310     2.1870 ha         1 1S0       0.100000
     39 H15          7.7560     1.4180     4.8110 hn         1 1S0       0.372800
     40 H16          7.8330    -0.1450     4.3370 hn         1 1S0       0.372800
     41 HAS3         6.9480     0.2690     5.6470 hn         1 1S0       0.372800
@<TRIPOS>BOND
     1     7    12 1   
     2     8     9 1   
     3    13    12 1   
     4    12    14 1   
     5    12     5 1   
     6    26    25 1   
     7     4     9 1   
     8     9     2 1   
     9     9    15 1   
    10     2    10 1   
    11    24    25 1   
    12    24    23 2   
    13     5    10 1   
    14    25    27 2   
    15    10    11 1   
    16    10     6 1   
    17    23    22 1   
    18    15    16 1   
    19    27    28 1   
    20    22    28 1   
    21    22    20 1   
    22    16    17 1   
    23    28     3 2   
    24    18    19 1   
    25    18    17 1   
    26    18     1 1   
    27    19    20 1   
    28    17    21 1   
    29    21    20 1   
    30     1    29 1   
    31    16    30 1   
    32    16    31 1   
    33    17    32 1   
    34    18    33 1   
    35    19    34 1   
    36    19    35 1   
    37    20    36 1   
    38    23    37 1   
    39    24    38 1   
    40    26    39 1   
    41    26    40 1   
    42    41    26 1   
@<TRIPOS>SUBSTRUCTURE
     1 1S0         1 TEMP              0 ****  ****    0 ROOT
