@<TRIPOS>MOLECULE
1S1
   38    39     1     0     0
SMALL
bcc


@<TRIPOS>ATOM
      1 C3           0.0000     0.0000     0.0000 ca         1 1S1       0.799900
      2 C4          -0.0020     0.0050     2.3010 ca         1 1S1       0.672500
      3 C7           1.9910     0.0000     1.1520 ca         1 1S1       0.797900
      4 N10         -1.1570     0.0160     5.6080 nc         1 1S1      -0.697000
      5 C12         -2.3220     0.0190     4.9600 cc         1 1S1       0.607900
      6 N13          3.3710     0.0000     1.1540 nu         1 1S1      -0.452900
      7 C15          0.0440     0.0010    -2.4640 c3         1 1S1       0.261300
      8 C16         -0.9510     0.0000    -3.6280 c3         1 1S1      -0.067400
      9 C17         -0.1850     0.0010    -4.9520 c3         1 1S1      -0.000100
     10 C18          0.9230    -1.2480    -2.5450 c3         1 1S1      -0.067400
     11 C19          0.0440    -2.4980    -2.4640 c3         1 1S1      -0.000100
     12 N21          1.5300     2.1380    -2.6140 n1         1 1S1      -0.372800
     13 C20          0.8900     1.2030    -2.5410 c1         1 1S1       0.204700
     14 N1          -0.6900     0.0010    -1.1960 nu         1 1S1      -0.464900
     15 N5           1.3290     0.0000     0.0000 nb         1 1S1      -0.816000
     16 C14          4.1020    -0.0000     2.4250 c3         1 1S1       0.196100
     17 N6           1.3250     0.0000     2.3030 nb         1 1S1      -0.808000
     18 N2          -0.6660     0.0050     1.1520 nb         1 1S1      -0.752000
     19 N8          -0.7000     0.0110     3.5070 na         1 1S1       0.350800
     20 N11         -2.0950     0.0160     3.6730 nd         1 1S1      -0.658800
     21 C9          -0.1700     0.0110     4.7480 cd         1 1S1       0.322400
     22 H1          -3.3040     0.0230     5.4170 h5         1 1S1       0.024100
     23 H2           3.8730    -0.0200     0.2890 hn         1 1S1       0.302800
     24 H3          -1.4960    -0.9360    -3.6360 hc         1 1S1       0.041700
     25 H4          -1.6470     0.8220    -3.5080 hc         1 1S1       0.041700
     26 H5          -0.6570     0.6900    -5.6420 hc         1 1S1       0.009533
     27 H6          -0.1940    -0.9960    -5.3750 hc         1 1S1       0.009533
     28 H7           0.8390     0.3100    -4.7770 hc         1 1S1       0.009533
     29 H8           1.6680    -1.2170    -1.7590 hc         1 1S1       0.041700
     30 H9           1.4180    -1.2800    -3.5090 hc         1 1S1       0.041700
     31 H10          0.4770    -3.2000    -1.7620 hc         1 1S1       0.009533
     32 H11         -0.9490    -2.2200    -2.1310 hc         1 1S1       0.009533
     33 H12         -0.0200    -2.9580    -3.4430 hc         1 1S1       0.009533
     34 H13         -1.6600    -0.2440    -1.2140 hn         1 1S1       0.313800
     35 H14          3.8940    -0.9190     2.9600 h1         1 1S1       0.013700
     36 H15          5.1650     0.0710     2.2300 h1         1 1S1       0.013700
     37 H16          3.7870     0.8460     3.0230 h1         1 1S1       0.013700
     38 H17          0.8850     0.0080     4.9900 h5         1 1S1       0.038100
@<TRIPOS>BOND
     1     1    14 1   
     2     1    15 ar  
     3     1    18 ar  
     4     2    17 ar  
     5     2    18 ar  
     6     2    19 1   
     7     3     6 1   
     8     3    15 ar  
     9     3    17 ar  
    10     4     5 1   
    11     4    21 2   
    12     5    20 2   
    13     5    22 1   
    14     6    16 1   
    15     6    23 1   
    16     7     8 1   
    17     7    10 1   
    18     7    13 1   
    19     7    14 1   
    20     8     9 1   
    21     8    24 1   
    22     8    25 1   
    23     9    26 1   
    24     9    27 1   
    25     9    28 1   
    26    10    11 1   
    27    10    29 1   
    28    10    30 1   
    29    11    31 1   
    30    11    32 1   
    31    11    33 1   
    32    12    13 3   
    33    14    34 1   
    34    16    35 1   
    35    16    36 1   
    36    16    37 1   
    37    19    20 1   
    38    19    21 1   
    39    21    38 1   
@<TRIPOS>SUBSTRUCTURE
     1 1S1         1 TEMP              0 ****  ****    0 ROOT
