@<TRIPOS>MOLECULE
molecule
   38    39     1     0     0
SMALL
bcc


@<TRIPOS>ATOM
      1 C3           0.0000     0.0000     0.0000 ca         1 1S1       1.014900
      2 C4          -0.0020     0.0050     2.3010 ca         1 1S1       0.902500
      3 C7           1.9910     0.0000     1.1520 ca         1 1S1       1.020900
      4 N10         -1.1570     0.0160     5.6080 nc         1 1S1      -0.758000
      5 C12         -2.3220     0.0190     4.9600 cc         1 1S1       0.568900
      6 N13          3.3710     0.0000     1.1540 nu         1 1S1      -0.886900
      7 C15          0.0440     0.0010    -2.4640 c3         1 1S1       0.330300
      8 C16         -0.9510     0.0000    -3.6280 c3         1 1S1      -0.100400
      9 C17         -0.1850     0.0010    -4.9520 c3         1 1S1      -0.091600
     10 C18          0.9230    -1.2480    -2.5450 c3         1 1S1      -0.100400
     11 C19          0.0440    -2.4980    -2.4640 c3         1 1S1      -0.091600
     12 N21          1.5300     2.1380    -2.6140 n1         1 1S1      -0.362800
     13 C20          0.8900     1.2030    -2.5410 c1         1 1S1       0.228700
     14 N1          -0.6900     0.0010    -1.1960 nu         1 1S1      -0.871900
     15 N5           1.3290     0.0000     0.0000 nb         1 1S1      -0.911000
     16 C14          4.1020    -0.0000     2.4250 c3         1 1S1       0.234100
     17 N6           1.3250     0.0000     2.3030 nb         1 1S1      -0.910000
     18 N2          -0.6660     0.0050     1.1520 nb         1 1S1      -0.859000
     19 N8          -0.7000     0.0110     3.5070 na         1 1S1      -0.094200
     20 N11         -2.0950     0.0160     3.6730 nd         1 1S1      -0.501800
     21 C9          -0.1700     0.0110     4.7480 cd         1 1S1       0.491400
     22 H1          -3.3040     0.0230     5.4170 h5         1 1S1       0.084100
     23 H2           3.8730    -0.0200     0.2890 hn         1 1S1       0.464800
     24 H3          -1.4960    -0.9360    -3.6360 hc         1 1S1       0.065950
     25 H4          -1.6470     0.8220    -3.5080 hc         1 1S1       0.065950
     26 H5          -0.6570     0.6900    -5.6420 hc         1 1S1       0.040700
     27 H6          -0.1940    -0.9960    -5.3750 hc         1 1S1       0.040700
     28 H7           0.8390     0.3100    -4.7770 hc         1 1S1       0.040700
     29 H8           1.6680    -1.2170    -1.7590 hc         1 1S1       0.065950
     30 H9           1.4180    -1.2800    -3.5090 hc         1 1S1       0.065950
     31 H10          0.4770    -3.2000    -1.7620 hc         1 1S1       0.040700
     32 H11         -0.9490    -2.2200    -2.1310 hc         1 1S1       0.040700
     33 H12         -0.0200    -2.9580    -3.4430 hc         1 1S1       0.040700
     34 H13         -1.6600    -0.2440    -1.2140 hn         1 1S1       0.468800
     35 H14          3.8940    -0.9190     2.9600 h1         1 1S1       0.045367
     36 H15          5.1650     0.0710     2.2300 h1         1 1S1       0.045367
     37 H16          3.7870     0.8460     3.0230 h1         1 1S1       0.045367
     38 H17          0.8850     0.0080     4.9900 h5         1 1S1       0.088100
@<TRIPOS>BOND
     1     4     5 1
     2     4    21 2
     3     5    20 2
     4    21    19 1
     5    20    19 1
     6    19     2 1
     7    12    13 3
     8     2    18 ar
     9     2    17 ar
    10    10    11 1
    11    10     7 1
    12    13     7 1
    13    18     1 ar
    14    17     3 ar
    15     7    14 1
    16     7     8 1
    17     9     8 1
    18     1    14 1
    19     1    15 ar
    20     3    15 ar
    21     3     6 1
    22    16     6 1
    23     5    22 1
    24     6    23 1
    25     8    24 1
    26     8    25 1
    27     9    26 1
    28     9    27 1
    29     9    28 1
    30    10    29 1
    31    10    30 1
    32    11    31 1
    33    11    32 1
    34    11    33 1
    35    14    34 1
    36    16    35 1
    37    16    36 1
    38    16    37 1
    39    21    38 1
@<TRIPOS>SUBSTRUCTURE
     1 1S1         1 TEMP              0 ****  ****    0 ROOT
