@<TRIPOS>MOLECULE
1S1
   38    39     1     0     0
SMALL
bcc


@<TRIPOS>ATOM
      1 C3          -0.0360    -0.0020     0.0650 ca         1 1S1       0.937900
      2 C4          -0.0090    -0.2890     2.3760 ca         1 1S1       0.837500
      3 C7           1.9920     0.0220     1.2320 ca         1 1S1       0.936900
      4 N10         -2.4500    -1.0120     4.9600 nc         1 1S1      -0.687000
      5 C12         -1.2690    -0.6490     5.6570 cc         1 1S1       0.508900
      6 N13          3.3780     0.0770     1.2120 nu         1 1S1      -0.845900
      7 C15         -2.1290     0.2650    -1.3080 c3         1 1S1       0.314300
      8 C16         -2.5320     0.0330    -2.7950 c3         1 1S1      -0.094400
      9 C17         -3.9910     0.3010    -3.0560 c3         1 1S1      -0.099100
     10 C18         -2.5170     1.6980    -0.8620 c3         1 1S1      -0.094400
     11 C19         -1.8690     2.7810    -1.6810 c3         1 1S1      -0.099100
     12 N21         -3.5450    -1.4050     0.1590 n1         1 1S1      -0.366800
     13 C20         -2.9210    -0.6720    -0.4910 c1         1 1S1       0.231700
     14 N1          -0.6980    -0.0160    -1.1710 nu         1 1S1      -0.831900
     15 N5           1.3390     0.1550     0.0140 nb         1 1S1      -0.852000
     16 C14          4.1550     0.1370     2.4130 c3         1 1S1       0.206100
     17 N6           1.3570    -0.1920     2.4570 nb         1 1S1      -0.782000
     18 N2          -0.7700    -0.2020     1.2260 nb         1 1S1      -0.834000
     19 N8          -0.7420    -0.4990     3.5870 na         1 1S1      -0.120200
     20 N11         -0.2360    -0.3410     4.8370 nd         1 1S1      -0.472800
     21 C9          -2.1060    -0.9140     3.6700 cd         1 1S1       0.467400
     22 H1          -1.2170    -0.6270     6.7500 h5         1 1S1       0.075100
     23 H2           3.8100     0.3620     0.3610 hn         1 1S1       0.449800
     24 H3          -2.2970    -1.0320    -3.0660 hc         1 1S1       0.063200
     25 H4          -1.9090     0.6970    -3.4500 hc         1 1S1       0.063200
     26 H5          -4.2150     1.3950    -2.9990 hc         1 1S1       0.043033
     27 H6          -4.6410    -0.2330    -2.3220 hc         1 1S1       0.043033
     28 H7          -4.2560    -0.0540    -4.0820 hc         1 1S1       0.043033
     29 H8          -2.2470     1.8320     0.2190 hc         1 1S1       0.063200
     30 H9          -3.6340     1.7870    -0.9330 hc         1 1S1       0.063200
     31 H10         -2.1510     3.7810    -1.2670 hc         1 1S1       0.043033
     32 H11         -2.2080     2.7400    -2.7450 hc         1 1S1       0.043033
     33 H12         -0.7550     2.7020    -1.6610 hc         1 1S1       0.043033
     34 H13         -0.1540     0.2970    -1.9490 hn         1 1S1       0.443800
     35 H14          5.2410     0.1390     2.1300 h1         1 1S1       0.052033
     36 H15          3.9440    -0.7580     3.0580 h1         1 1S1       0.052033
     37 H16          3.9270     1.0630     3.0080 h1         1 1S1       0.052033
     38 H17         -2.7310    -1.1140     2.7900 h5         1 1S1       0.103100
@<TRIPOS>BOND
     1     1    14 1   
     2     1    15 ar  
     3     1    18 ar  
     4     2    17 ar  
     5     2    18 ar  
     6     2    19 1   
     7     3     6 1   
     8     3    15 ar  
     9     3    17 ar  
    10     4     5 1   
    11     4    21 2   
    12     5    20 2   
    13     5    22 1   
    14     6    16 1   
    15     6    23 1   
    16     7     8 1   
    17     7    10 1   
    18     7    13 1   
    19     7    14 1   
    20     8     9 1   
    21     8    24 1   
    22     8    25 1   
    23     9    26 1   
    24     9    27 1   
    25     9    28 1   
    26    10    11 1   
    27    10    29 1   
    28    10    30 1   
    29    11    31 1   
    30    11    32 1   
    31    11    33 1   
    32    12    13 3   
    33    14    34 1   
    34    16    35 1   
    35    16    36 1   
    36    16    37 1   
    37    19    20 1   
    38    19    21 1   
    39    21    38 1   
@<TRIPOS>SUBSTRUCTURE
     1 1S1         1 TEMP              0 ****  ****    0 ROOT
