@<TRIPOS>MOLECULE
1S5
   49    50     1     0     0
SMALL
bcc


@<TRIPOS>ATOM
      1 OAA          0.0000     0.0000     0.0000 o          1 1S5      -0.607100
      2 CAB          1.2230     0.0000     0.0000 c          1 1S5       0.586500
      3 CAC          1.9460     0.0000     1.2200 cc         1 1S5      -0.056100
      4 OAD          1.2890     0.0000     2.4110 os         1 1S5      -0.188200
      5 CAE          0.5690     1.1050     2.7420 ca         1 1S5       0.149100
      6 CAF         -0.2080     1.1070     3.8920 ca         1 1S5      -0.117300
      7 CAG         -0.2530    -0.1150     4.7720 c3         1 1S5       0.072200
      8 CAH          1.9440    -0.0060    -1.2150 cc         1 1S5      -0.275200
      9 CAI          3.3010    -0.0010     1.1850 cd         1 1S5      -0.101000
     10 CAJ          0.6170     2.2330     1.9350 ca         1 1S5      -0.174000
     11 CAK         -0.9390     2.2290     4.2300 ca         1 1S5      -0.082000
     12 CAL          3.2960    -0.0060    -1.1830 cd         1 1S5      -0.055200
     13 NAM          3.9610    -0.0010    -0.0030 na         1 1S5      -0.005200
     14 CAN         -0.1130     3.3540     2.2710 ca         1 1S5      -0.078000
     15 CAO         -0.8960     3.3560     3.4190 ca         1 1S5      -0.007400
     16 NAP         -1.6350     4.4920     3.7600 nv         1 1S5      -0.556200
     17 CAQ          4.0710    -0.0120    -2.4750 c3         1 1S5       0.015800
     18 CAR          5.4260     0.0000    -0.0080 c3         1 1S5       0.138100
     19 CAS          4.4420     1.4230    -2.8540 c3         1 1S5      -0.031400
     20 CAT          5.2290     1.4160    -4.1660 c3         1 1S5      -0.028400
     21 CAU          5.6000     2.8510    -4.5460 c3         1 1S5      -0.029400
     22 CAV          6.3870     2.8450    -5.8570 c3         1 1S5      -0.028400
     23 CAW          6.7570     4.2800    -6.2370 c3         1 1S5       0.006900
     24 HAG         -0.6170    -0.9600     4.2000 hc         1 1S5       0.007033
     25 HAGA        -0.9170     0.0670     5.6090 hc         1 1S5       0.007033
     26 HAGB         0.7420    -0.3310     5.1420 hc         1 1S5       0.007033
     27 HAH          1.4190    -0.0100    -2.1620 ha         1 1S5       0.142000
     28 HAI          3.8620     0.0010     2.1110 h4         1 1S5       0.141000
     29 HAJ          1.2270     2.2320     1.0400 ha         1 1S5       0.116000
     30 HAK         -1.5470     2.2290     5.1270 ha         1 1S5       0.109000
     31 HAN         -0.0770     4.2340     1.6400 ha         1 1S5       0.104000
     32 HNAP        -1.2300     5.1960     4.3450 hn         1 1S5       0.268300
     33 HNAA        -2.5760     4.5940     3.4330 hn         1 1S5       0.268300
     34 HAQ          4.9740    -0.5980    -2.3520 hc         1 1S5       0.031200
     35 HAQA         3.4630    -0.4470    -3.2590 hc         1 1S5       0.031200
     36 HAR          5.7860    -0.7500    -0.7020 h1         1 1S5       0.028033
     37 HARA         5.7860     0.9760    -0.3110 h1         1 1S5       0.028033
     38 HARB         5.7910    -0.2250     0.9870 h1         1 1S5       0.028033
     39 HAS          5.0500     1.8580    -2.0700 hc         1 1S5       0.021200
     40 HASA         3.5390     2.0080    -2.9780 hc         1 1S5       0.021200
     41 HAT          6.1320     0.8300    -4.0420 hc         1 1S5       0.016200
     42 HATA         4.6210     0.9810    -4.9500 hc         1 1S5       0.016200
     43 HAU          4.6980     3.4370    -4.6690 hc         1 1S5       0.016200
     44 HAUA         6.2080     3.2860    -3.7620 hc         1 1S5       0.016200
     45 HAV          5.7800     2.4090    -6.6410 hc         1 1S5       0.012700
     46 HAVA         7.2910     2.2600    -5.7330 hc         1 1S5       0.012700
     47 HAW          5.8540     4.8650    -6.3610 hc         1 1S5       0.001367
     48 HAWA         7.3150     4.2760    -7.1650 hc         1 1S5       0.001367
     49 HAWB         7.3640     4.7160    -5.4520 hc         1 1S5       0.001367
@<TRIPOS>BOND
     1     1     2 2   
     2     2     3 1   
     3     2     8 1   
     4     3     4 1   
     5     3     9 2   
     6     4     5 1   
     7     5     6 ar  
     8     5    10 ar  
     9     6     7 1   
    10     6    11 ar  
    11     7    24 1   
    12     7    25 1   
    13     7    26 1   
    14     8    12 2   
    15     8    27 1   
    16     9    13 1   
    17     9    28 1   
    18    10    14 ar  
    19    10    29 1   
    20    11    15 ar  
    21    11    30 1   
    22    12    13 1   
    23    12    17 1   
    24    13    18 1   
    25    14    15 ar  
    26    14    31 1   
    27    15    16 1   
    28    16    32 1   
    29    16    33 1   
    30    17    19 1   
    31    17    34 1   
    32    17    35 1   
    33    18    36 1   
    34    18    37 1   
    35    18    38 1   
    36    19    20 1   
    37    19    39 1   
    38    19    40 1   
    39    20    21 1   
    40    20    41 1   
    41    20    42 1   
    42    21    22 1   
    43    21    43 1   
    44    21    44 1   
    45    22    23 1   
    46    22    45 1   
    47    22    46 1   
    48    23    47 1   
    49    23    48 1   
    50    23    49 1   
@<TRIPOS>SUBSTRUCTURE
     1 1S5         1 TEMP              0 ****  ****    0 ROOT
