@<TRIPOS>MOLECULE
1S5
   49    50     1     0     0
SMALL
bcc


@<TRIPOS>ATOM
      1 OAA         -0.0610    -1.1430    -0.0830 o          1 1S5      -0.575100
      2 CAB          1.0940    -0.6870    -0.0460 c          1 1S5       0.574500
      3 CAC          1.7260    -0.1340     1.1570 cc         1 1S5      -0.078100
      4 OAD          0.9690     0.0740     2.3070 os         1 1S5      -0.239200
      5 CAE          0.9220    -1.0260     3.1740 ca         1 1S5       0.041100
      6 CAF          1.6450    -0.9780     4.3770 ca         1 1S5      -0.048300
      7 CAG          2.5530     0.1510     4.6900 c3         1 1S5      -0.053800
      8 CAH          1.9680    -0.6580    -1.2150 cc         1 1S5      -0.309200
      9 CAI          3.0210     0.3160     1.1490 cd         1 1S5       0.066000
     10 CAJ          0.0610    -2.0920     2.8910 ca         1 1S5      -0.089000
     11 CAK          1.4930    -2.0200     5.2930 ca         1 1S5      -0.192000
     12 CAL          3.2540    -0.1920    -1.1790 cd         1 1S5       0.141800
     13 NAM          3.8090     0.2860     0.0110 na         1 1S5      -0.506200
     14 CAN         -0.0830    -3.1260     3.8050 ca         1 1S5      -0.187000
     15 CAO          0.6270    -3.1040     5.0290 ca         1 1S5       0.135600
     16 NAP          0.4160    -4.0970     5.9940 nv         1 1S5      -0.817200
     17 CAQ          4.0810    -0.2030    -2.4350 c3         1 1S5      -0.052200
     18 CAR          5.1320     0.8490     0.0450 c3         1 1S5       0.195100
     19 CAS          4.9390    -1.4490    -2.5530 c3         1 1S5      -0.076400
     20 CAT          4.1300    -2.6580    -2.9740 c3         1 1S5      -0.085400
     21 CAU          4.9860    -3.9060    -3.0000 c3         1 1S5      -0.076400
     22 CAV          4.2100    -5.1250    -3.4540 c3         1 1S5      -0.078400
     23 CAW          3.2770    -5.6500    -2.3930 c3         1 1S5      -0.095100
     24 HAG          2.5230     0.3930     5.7810 hc         1 1S5       0.045033
     25 HAGA         2.2600     1.0640     4.1150 hc         1 1S5       0.045033
     26 HAGB         3.6050    -0.1180     4.4200 hc         1 1S5       0.045033
     27 HAH          1.5430    -1.0400    -2.1550 ha         1 1S5       0.161000
     28 HAI          3.4860     0.7260     2.0650 h4         1 1S5       0.163000
     29 HAJ         -0.4940    -2.0940     1.9370 ha         1 1S5       0.177000
     30 HAK          2.0520    -1.9780     6.2400 ha         1 1S5       0.131000
     31 HAN         -0.7670    -3.9560     3.5750 ha         1 1S5       0.135000
     32 HNAP         1.1690    -4.2130     6.6340 hn         1 1S5       0.386800
     33 HNAA         0.0810    -4.9590     5.6240 hn         1 1S5       0.386800
     34 HAQ          4.7360     0.7080    -2.4850 hc         1 1S5       0.061700
     35 HAQA         3.3820    -0.1480    -3.3130 hc         1 1S5       0.061700
     36 HAR          5.8570     0.1530    -0.4590 h1         1 1S5       0.053700
     37 HARA         5.4580     1.0000     1.1080 h1         1 1S5       0.053700
     38 HARB         5.1490     1.8400    -0.4840 h1         1 1S5       0.053700
     39 HAS          5.7440    -1.2590    -3.3120 hc         1 1S5       0.044200
     40 HASA         5.4480    -1.6620    -1.5760 hc         1 1S5       0.044200
     41 HAT          3.2710    -2.7980    -2.2640 hc         1 1S5       0.049200
     42 HATA         3.6920    -2.4800    -3.9920 hc         1 1S5       0.049200
     43 HAU          5.4110    -4.0910    -1.9780 hc         1 1S5       0.037700
     44 HAUA         5.8510    -3.7430    -3.6960 hc         1 1S5       0.037700
     45 HAV          4.9390    -5.9330    -3.7330 hc         1 1S5       0.038700
     46 HAVA         3.6240    -4.8750    -4.3780 hc         1 1S5       0.038700
     47 HAW          2.7460    -6.5610    -2.7610 hc         1 1S5       0.035033
     48 HAWA         3.8430    -5.9210    -1.4690 hc         1 1S5       0.035033
     49 HAWB         2.5110    -4.8830    -2.1210 hc         1 1S5       0.035033
@<TRIPOS>BOND
     1     1     2 2   
     2     2     3 1   
     3     2     8 1   
     4     3     4 1   
     5     3     9 2   
     6     4     5 1   
     7     5     6 ar  
     8     5    10 ar  
     9     6     7 1   
    10     6    11 ar  
    11     7    24 1   
    12     7    25 1   
    13     7    26 1   
    14     8    12 2   
    15     8    27 1   
    16     9    13 1   
    17     9    28 1   
    18    10    14 ar  
    19    10    29 1   
    20    11    15 ar  
    21    11    30 1   
    22    12    13 1   
    23    12    17 1   
    24    13    18 1   
    25    14    15 ar  
    26    14    31 1   
    27    15    16 1   
    28    16    32 1   
    29    16    33 1   
    30    17    19 1   
    31    17    34 1   
    32    17    35 1   
    33    18    36 1   
    34    18    37 1   
    35    18    38 1   
    36    19    20 1   
    37    19    39 1   
    38    19    40 1   
    39    20    21 1   
    40    20    41 1   
    41    20    42 1   
    42    21    22 1   
    43    21    43 1   
    44    21    44 1   
    45    22    23 1   
    46    22    45 1   
    47    22    46 1   
    48    23    47 1   
    49    23    48 1   
    50    23    49 1   
@<TRIPOS>SUBSTRUCTURE
     1 1S5         1 TEMP              0 ****  ****    0 ROOT
