@<TRIPOS>MOLECULE
1S6
   49    48     1     0     0
SMALL
bcc


@<TRIPOS>ATOM
      1 C          -1.2340    0.4840   -0.0900 c2        1 1S6      0.196000
      2 N           0.8870    1.7340    0.0200 n3        1 1S6     -0.345000
      3 CA          0.2760    0.4610   -0.3050 c3        1 1S6     -0.107000
      4 CB          0.8870   -0.7080    0.5000 c3        1 1S6     -0.050000
      5 CAI         7.8410   -3.0150    2.8040 c1        1 1S6      0.385000
      6 CAJ         5.3710    2.7540   -0.2530 c2        1 1S6     -0.229000
      7 CAK         7.7430   -1.7320    2.8570 c1        1 1S6     -0.769000
      8 CAL         5.0630    1.6860    0.4780 c2        1 1S6     -0.165000
      9 CAM         7.6100   -0.4530    2.9050 c1        1 1S6      0.385000
     10 NAN         4.1360   -0.4510    2.8800 n2        1 1S6     -0.002000
     11 NAP         1.1910   -2.4250   -2.2720 n2        1 1S6     -0.206000
     12 OAQ         2.9920   -0.9510    3.2980 os        1 1S6     -0.158000
     13 SAR         0.5440   -0.6430    2.2550 ss        1 1S6      0.056000
     14 CAT         2.8000   -1.5640   -0.7090 c2        1 1S6      0.339000
     15 CAV         1.8890    0.0480    3.2200 c3        1 1S6      0.072000
     16 CAW         5.0840    1.6840    1.9650 c3        1 1S6     -0.092000
     17 CAX         4.0100    0.8180    2.5180 c2        1 1S6     -0.029000
     18 CAY         2.6080    1.2600    2.7130 c2        1 1S6     -0.359000
     19 CBB         1.9920   -2.6810   -1.3070 c2        1 1S6     -0.037000
     20 CBC         2.3280   -4.0150   -0.6710 c3        1 1S6     -0.122000
     21 OXT        -1.9380    1.3970   -0.5130 o         1 1S6     -0.273000
     22 H1         -1.6530   -0.3910    0.4530 h4        1 1S6      0.107000
     23 H2          1.8410    1.7410   -0.2820 hn        1 1S6      0.170000
     24 H3          0.4260    0.1900   -1.4030 h1        1 1S6      0.103000
     25 H4          0.3800   -1.6610    0.1850 h2        1 1S6      0.119000
     26 H5          0.5940    1.0620    4.6310 hc        1 1S6      0.104333
     27 H6          0.7040   -0.7430    4.8570 hc        1 1S6      0.104333
     28 H7          2.0890    0.3160    5.3540 hc        1 1S6      0.104333
     29 H16         5.3800    2.7250   -1.3510 ha        1 1S6      0.112000
     30 H17         6.0950    1.3090    2.3080 hc        1 1S6      0.115500
     31 H18         4.7910    0.7200    0.0100 ha        1 1S6      0.157000
     32 H19         4.9570    2.7230    2.3730 hc        1 1S6      0.115500
     33 H20         0.7150   -3.2110   -2.6650 hn        1 1S6      0.164000
     34 H22         2.5200   -3.8290    0.4260 hc        1 1S6      0.123000
     35 CAB         1.1870   -5.0010   -0.7930 c3        1 1S6     -0.215500
     36 CAC         3.5940   -4.5690   -1.2960 c3        1 1S6     -0.215500
     37 OAE         2.2880   -0.7480    0.2700 os        1 1S6     -0.235000
     38 OAH         3.9760   -1.3140   -0.9610 o         1 1S6     -0.277000
     39 H8          1.4210   -5.9180   -0.1990 hc        1 1S6      0.087167
     40 H9          0.2390   -4.5600   -0.4020 hc        1 1S6      0.087167
     41 H10         1.0300   -5.3090   -1.8550 hc        1 1S6      0.087167
     42 H11         4.4180   -3.8150   -1.2320 hc        1 1S6      0.087167
     43 H12         3.9070   -5.4940   -0.7560 hc        1 1S6      0.087167
     44 H13         3.4250   -4.8240   -2.3700 hc        1 1S6      0.087167
     45 HN3         0.3770    2.4810   -0.4100 hn        1 1S6      0.170000
     46 CAU         2.1110    2.4550    2.4690 c1        1 1S6      0.373000
     47 CAA         1.2780    0.1810    4.5960 c3        1 1S6     -0.216000
     48 H15         5.6420    3.7230    0.1870 ha        1 1S6      0.112000
     49 OAF         1.6930    3.5460    2.2790 o         1 1S6     -0.107000
@<TRIPOS>BOND
     1    1    3 1   
     2    1   21 1   
     3    1   22 1   
     4    2    3 1   
     5    2   23 1   
     6    2   45 1   
     7    3    4 1   
     8    3   24 1   
     9    4   13 1   
    10    4   25 1   
    11    4   37 1   
    12    5    7 1   
    13    6    8 1   
    14    6   29 1   
    15    6   48 1   
    16    7    9 1   
    17    8   16 1   
    18    8   31 1   
    19   10   12 1   
    20   10   17 1   
    21   11   19 1   
    22   11   33 1   
    23   12   15 1   
    24   13   15 1   
    25   14   19 1   
    26   14   37 1   
    27   14   38 1   
    28   15   18 1   
    29   15   47 1   
    30   16   17 1   
    31   16   30 1   
    32   16   32 1   
    33   17   18 1   
    34   18   46 1   
    35   19   20 1   
    36   20   34 1   
    37   20   35 1   
    38   20   36 1   
    39   26   47 1   
    40   27   47 1   
    41   28   47 1   
    42   35   39 1   
    43   35   40 1   
    44   35   41 1   
    45   36   42 1   
    46   36   43 1   
    47   36   44 1   
    48   46   49 1   
@<TRIPOS>SUBSTRUCTURE
     1 1S6         1 TEMP              0 ****  ****    0 ROOT
