@<TRIPOS>MOLECULE
1S7
   40    41     1     0     0
SMALL
bcc


@<TRIPOS>ATOM
      1 C            1.5000    -0.5950     0.1160 c3         1 1S7       0.099700
      2 N            1.6500     1.3140     2.5700 ny         1 1S7      -0.717800
      3 O            2.5280     0.2550     0.6150 os         1 1S7      -0.370600
      4 S           -0.0230     4.0870     4.7330 ss         1 1S7       0.188200
      5 C1           2.6890     0.3500     2.0090 c3         1 1S7       0.211000
      6 O1          -0.1160    -0.2140     2.3110 o          1 1S7      -0.478100
      7 S1           5.3320     0.3460     0.9970 ss         1 1S7      -0.316200
      8 N2           4.0930     2.3730     2.3730 n2         1 1S7      -0.666900
      9 C3          -0.7160     2.0650     2.9720 c3         1 1S7      -0.061100
     10 C4          -0.4770     2.5260     4.3450 cc         1 1S7      -0.232400
     11 C5          -0.6680     1.7610     5.4930 cd         1 1S7      -0.138000
     12 C6          -0.4140     2.5170     6.6690 cd         1 1S7      -0.163000
     13 C7          -0.0540     3.8190     6.3610 cc         1 1S7      -0.189100
     14 C8           4.1860     0.9580     2.2280 c3         1 1S7       0.235600
     15 C9           5.5160     1.7240    -0.1200 c3         1 1S7       0.047900
     16 C10          4.4670     2.7690    -0.0330 ce         1 1S7      -0.245800
     17 C11          4.0250     3.4160    -1.1210 c2         1 1S7      -0.118000
     18 C13          3.9900     3.1230     1.3160 ce         1 1S7       0.467600
     19 C14          2.6940    -1.0080     2.7210 c          1 1S7       0.553900
     20 C15          3.0450     4.3550     1.4280 c          1 1S7       0.850300
     21 O4           2.2790    -1.1500     3.8650 o          1 1S7      -0.486100
     22 O5           3.4490     5.5190     1.3200 o          1 1S7      -0.774800
     23 O6           1.8320     3.9730     1.5860 o          1 1S7      -0.774800
     24 C2           0.2170     0.9310     2.5950 c          1 1S7       0.565100
     25 H            1.3460    -1.5010     0.7480 h1         1 1S7       0.056033
     26 HA           0.5480    -0.0130     0.0390 h1         1 1S7       0.056033
     27 HB           1.8680    -0.8790    -0.9040 h1         1 1S7       0.056033
     28 HN           1.9250     1.5230     3.5390 hn         1 1S7       0.506800
     29 H3          -1.7670     1.6760     2.8630 hc         1 1S7       0.115200
     30 H3A         -0.5680     2.9090     2.2340 hc         1 1S7       0.115200
     31 H5          -0.9790     0.7140     5.5030 ha         1 1S7       0.157000
     32 H6          -0.4980     2.1090     7.6780 ha         1 1S7       0.160000
     33 H7           0.1890     4.5850     7.0990 h4         1 1S7       0.182000
     34 H8           4.5400     0.5300     3.2080 h2         1 1S7       0.106700
     35 H9           6.5140     2.1860     0.0990 h1         1 1S7       0.084200
     36 H9A          5.5570     1.2780    -1.1460 h1         1 1S7       0.084200
     37 H11          3.2820     4.2260    -1.0520 ha         1 1S7       0.134500
     38 H11A         4.3880     3.1800    -2.1300 ha         1 1S7       0.134500
     39 H14          3.1620    -1.8160     2.1190 h4         1 1S7       0.056200
     40 HN3          1.7150     2.2400     2.0180 hn         1 1S7       0.506800
@<TRIPOS>BOND
     1     1     3 1   
     2     1    25 1   
     3     1    26 1   
     4     1    27 1   
     5     2     5 1   
     6     2    24 1   
     7     2    28 1   
     8     2    40 1   
     9     3     5 1   
    10     4    10 1   
    11     4    13 1   
    12     5    14 1   
    13     5    19 1   
    14     6    24 2   
    15     7    14 1   
    16     7    15 1   
    17     8    14 1   
    18     8    18 2   
    19     9    10 1   
    20     9    24 1   
    21     9    29 1   
    22     9    30 1   
    23    10    11 2   
    24    11    12 1   
    25    11    31 1   
    26    12    13 2   
    27    12    32 1   
    28    13    33 1   
    29    14    34 1   
    30    15    16 1   
    31    15    35 1   
    32    15    36 1   
    33    16    17 2   
    34    16    18 1   
    35    17    37 1   
    36    17    38 1   
    37    18    20 1   
    38    19    21 2   
    39    19    39 1   
    40    20    22 1   
    41    20    23 1   
@<TRIPOS>SUBSTRUCTURE
     1 1S7         1 TEMP              0 ****  ****    0 ROOT
