@<TRIPOS>MOLECULE
molecule
   39    40     1     0     0
SMALL
bcc


@<TRIPOS>ATOM
      1 C            0.0000     0.0000     0.0000 c3         1 1S7       0.109700
      2 N            1.5930     1.2060     2.0260 ns         1 1S7      -0.571900
      3 O            1.4290     0.0000     0.0000 os         1 1S7      -0.367600
      4 S            1.4700     1.9570     6.8400 ss         1 1S7      -0.178800
      5 C1           2.0100     0.0000     1.3060 c3         1 1S7       0.253200
      6 O1           2.7520     0.6150     3.8230 o          1 1S7      -0.612100
      7 S1           4.0420    -1.4690     0.2130 ss         1 1S7      -0.458200
      8 N2           3.9820     1.2040     0.5400 n2         1 1S7      -0.585900
      9 C3           1.5920     2.6590     4.0280 c3         1 1S7      -0.078100
     10 C4           2.2050     2.6590     5.4040 cc         1 1S7       0.014600
     11 C5           3.3860     3.1900     5.7210 cd         1 1S7      -0.147000
     12 C6           3.7420     3.0700     7.0530 cd         1 1S7      -0.149000
     13 C7           2.8500     2.4410     7.8180 cc         1 1S7      -0.086100
     14 C8           3.5340    -0.0200     1.1850 c3         1 1S7       0.253600
     15 C9           5.7920    -1.0820    -0.1230 c3         1 1S7       0.085900
     16 C10          5.8180     0.2770    -0.7920 ce         1 1S7      -0.264800
     17 C11          6.6200     0.5020    -1.8270 c2         1 1S7      -0.162000
     18 C13          4.9450     1.3440    -0.2840 ce         1 1S7       0.473600
     19 C14          1.5490    -1.2210     2.0590 c          1 1S7       0.546900
     20 C15          5.2100     2.7210    -0.7790 c          1 1S7       0.806300
     21 H           -0.3610    -0.2650     0.9860 h1         1 1S7       0.032700
     22 HA          -0.3610     0.9870    -0.2630 h1         1 1S7       0.032700
     23 HB          -0.3610    -0.7210    -0.7230 h1         1 1S7       0.032700
     24 HN           1.0160     1.8860     1.5710 hn         1 1S7       0.328500
     25 H3           0.5120     2.6730     4.1140 hc         1 1S7       0.074700
     26 H3A          1.9220     3.5370     3.4860 hc         1 1S7       0.074700
     27 H5           4.0190     3.6790     4.9900 ha         1 1S7       0.161000
     28 H6           4.6750     3.4580     7.4440 ha         1 1S7       0.139000
     29 H7           2.9580     2.2550     8.8800 h4         1 1S7       0.157000
     30 H8           3.9750    -0.0840     2.1730 h2         1 1S7       0.115700
     31 H9           6.3470    -1.0480     0.8060 h1         1 1S7       0.062200
     32 H9A          6.2140    -1.8280    -0.7860 h1         1 1S7       0.062200
     33 H11          6.6330     1.4760    -2.3010 ha         1 1S7       0.138500
     34 H11A         7.2600    -0.2890    -2.1980 ha         1 1S7       0.138500
     35 H14          1.7350    -2.2090     1.6550 h4         1 1S7       0.018200
     36 O4           0.9360    -1.0970     3.0920 o          1 1S7      -0.508100
     37 C2           2.0210     1.4200     3.2860 c          1 1S7       0.685100
     38 O5           6.1890     2.9430    -1.4620 o          1 1S7      -0.813300
     39 O6           4.3640     3.7220    -0.4710 o          1 1S7      -0.813300
@<TRIPOS>BOND
     1     3     1 1
     2     1    21 1
     3     1    22 1
     4     1    23 1
     5     5     2 1
     6     2    37 1
     7     2    24 1
     8     5     3 1
     9    10     4 1
    10    13     4 1
    11    14     5 1
    12    19     5 1
    13     6    37 2
    14    15     7 1
    15     7    14 1
    16    37     9 1
    17    14     8 1
    18    18     8 2
    19     9    10 1
    20     9    25 1
    21     9    26 1
    22    11    10 2
    23    36    19 2
    24    11    12 1
    25    11    27 1
    26    20    38 1
    27    12    13 2
    28    12    28 1
    29    20    39 1
    30    13    29 1
    31    14    30 1
    32    15    16 1
    33    15    31 1
    34    15    32 1
    35    17    16 2
    36    16    18 1
    37    17    33 1
    38    17    34 1
    39    18    20 1
    40    19    35 1
@<TRIPOS>SUBSTRUCTURE
     1 1S7         1 TEMP              0 ****  ****    0 ROOT
