@<TRIPOS>MOLECULE
1S8
   60    64     1     0     0
SMALL
bcc


@<TRIPOS>ATOM
      1 C1           0.7150     1.5080    -0.1460 c3         1 1S8       0.108700
      2 O2           1.6170     0.4480     0.1500 os         1 1S8      -0.299900
      3 C3           1.9090     0.2550     1.4840 ca         1 1S8       0.102100
      4 C4           1.3230     0.9220     2.5380 ca         1 1S8      -0.157000
      5 C5           1.7000     0.6310     3.8710 ca         1 1S8      -0.284600
      6 C6           2.7160    -0.3390     4.1280 ca         1 1S8       0.455600
      7 C7           3.3060    -1.0280     3.0230 ca         1 1S8      -0.263300
      8 C8           2.9120    -0.7420     1.7350 ca         1 1S8       0.145100
      9 O9           3.4320    -1.3640     0.6290 oh         1 1S8      -0.470100
     10 N10          3.1480    -0.6260     5.4060 nb         1 1S8      -0.718000
     11 C11          2.5650     0.0480     6.4090 ca         1 1S8       0.689300
     12 N12          1.5500     0.9830     6.2890 nb         1 1S8      -0.763000
     13 C13          1.1190     1.2800     5.0460 ca         1 1S8       0.693200
     14 N14          0.1310     2.2570     4.8480 nu         1 1S8      -0.715300
     15 C15         -0.5460     2.8850     5.9210 ca         1 1S8       0.102600
     16 C16         -1.9560     2.9140     5.9460 ca         1 1S8      -0.114000
     17 C17         -2.6360     3.6050     6.9380 ca         1 1S8      -0.155500
     18 C18         -1.9330     4.2870     7.9590 ca         1 1S8       0.059600
     19 C19         -0.5240     4.2520     7.9360 ca         1 1S8      -0.155500
     20 C20          0.1550     3.5680     6.9350 ca         1 1S8      -0.114000
     21 N21         -2.6720     4.9500     8.9530 ns         1 1S8      -0.468100
     22 C22         -2.1910     5.8390     9.9050 c          1 1S8       0.680700
     23 O23         -0.9930     6.1640     9.9900 o          1 1S8      -0.582100
     24 C24         -3.2150     6.4120    10.8320 ca         1 1S8      -0.148600
     25 C25         -3.1300     7.7730    11.1460 ca         1 1S8      -0.092000
     26 C26         -4.0560     8.3420    12.0190 ca         1 1S8      -0.136500
     27 C27         -5.0590     7.5550    12.5850 ca         1 1S8      -0.107000
     28 C28         -5.1340     6.1950    12.2830 ca         1 1S8      -0.136500
     29 C29         -4.2140     5.6200    11.4050 ca         1 1S8      -0.092000
     30 C30          3.0420    -0.2260     7.8300 c3         1 1S8      -0.069400
     31 C31          3.9910     0.8320     8.2770 ca         1 1S8      -0.085300
     32 C32          5.3700     0.5960     8.2570 ca         1 1S8      -0.115500
     33 C33          6.2560     1.5770     8.7000 ca         1 1S8      -0.134500
     34 C34          5.7720     2.7990     9.1650 ca         1 1S8      -0.127000
     35 C35          4.3980     3.0400     9.1840 ca         1 1S8      -0.134500
     36 C36          3.5090     2.0620     8.7410 ca         1 1S8      -0.115500
     37 H1           0.6780     1.5080    -1.2660 h1         1 1S8       0.046033
     38 H2           1.1060     2.4820     0.2360 h1         1 1S8       0.046033
     39 H3          -0.2950     1.2960     0.2800 h1         1 1S8       0.046033
     40 H4           0.5750     1.7000     2.3290 ha         1 1S8       0.140000
     41 H5           4.0820    -1.7850     3.2170 ha         1 1S8       0.159000
     42 H6           4.1000    -1.9990     0.9310 ho         1 1S8       0.422000
     43 H7          -0.4540     2.0770     4.0580 hn         1 1S8       0.421800
     44 H8          -2.5400     2.3900     5.1730 ha         1 1S8       0.143500
     45 H9          -3.7370     3.6080     6.9190 ha         1 1S8       0.152500
     46 H10          0.0630     4.7740     8.7110 ha         1 1S8       0.152500
     47 H11          1.2570     3.5650     6.9510 ha         1 1S8       0.143500
     48 H12         -3.6580     4.8120     8.9190 hn         1 1S8       0.318500
     49 H13         -2.3220     8.3810    10.7080 ha         1 1S8       0.146000
     50 H14         -3.9910     9.4120    12.2630 ha         1 1S8       0.139000
     51 H15         -5.7870     8.0050    13.2760 ha         1 1S8       0.137000
     52 H16         -5.9170     5.5720    12.7390 ha         1 1S8       0.139000
     53 H17         -4.2710     4.5430    11.1890 ha         1 1S8       0.146000
     54 H18          3.5370    -1.2340     7.8710 hc         1 1S8       0.073700
     55 H19          2.1520    -0.2560     8.5150 hc         1 1S8       0.073700
     56 H20          5.7550    -0.3660     7.8860 ha         1 1S8       0.140000
     57 H21          7.3390     1.3850     8.6820 ha         1 1S8       0.131500
     58 H22          6.4710     3.5710     9.5160 ha         1 1S8       0.129000
     59 H23          4.0130     4.0040     9.5490 ha         1 1S8       0.131500
     60 H24          2.4250     2.2550     8.7470 ha         1 1S8       0.140000
@<TRIPOS>BOND
     1     1     2 1   
     2     1    37 1   
     3     1    38 1   
     4     1    39 1   
     5     2     3 1   
     6     3     4 ar  
     7     3     8 ar  
     8     4     5 ar  
     9     4    40 1   
    10     5     6 ar  
    11     5    13 ar  
    12     6     7 ar  
    13     6    10 ar  
    14     7     8 ar  
    15     7    41 1   
    16     8     9 1   
    17     9    42 1   
    18    10    11 ar  
    19    11    12 ar  
    20    11    30 1   
    21    12    13 ar  
    22    13    14 1   
    23    14    15 1   
    24    14    43 1   
    25    15    16 ar  
    26    15    20 ar  
    27    16    17 ar  
    28    16    44 1   
    29    17    18 ar  
    30    17    45 1   
    31    18    19 ar  
    32    18    21 1   
    33    19    20 ar  
    34    19    46 1   
    35    20    47 1   
    36    21    22 1   
    37    21    48 1   
    38    22    23 2   
    39    22    24 1   
    40    24    25 ar  
    41    24    29 ar  
    42    25    26 ar  
    43    25    49 1   
    44    26    27 ar  
    45    26    50 1   
    46    27    28 ar  
    47    27    51 1   
    48    28    29 ar  
    49    28    52 1   
    50    29    53 1   
    51    30    31 1   
    52    30    54 1   
    53    30    55 1   
    54    31    32 ar  
    55    31    36 ar  
    56    32    33 ar  
    57    32    56 1   
    58    33    34 ar  
    59    33    57 1   
    60    34    35 ar  
    61    34    58 1   
    62    35    36 ar  
    63    35    59 1   
    64    36    60 1   
@<TRIPOS>SUBSTRUCTURE
     1 1S8         1 TEMP              0 ****  ****    0 ROOT
