@<TRIPOS>MOLECULE
1S8
   60    64     1     0     0
SMALL
bcc


@<TRIPOS>ATOM
      1 C1           0.0000     0.0000     0.0000 c3         1 1S8       0.240700
      2 O2           1.4300     0.0000     0.0000 os         1 1S8      -0.289900
      3 C3           2.0470     0.0000     1.2110 ca         1 1S8       0.120100
      4 C4           1.2970     0.0000     2.3520 ca         1 1S8      -0.183000
      5 C5           1.9320    -0.0000     3.6000 ca         1 1S8      -0.291600
      6 C6           3.3470    -0.0020     3.6720 ca         1 1S8       0.431600
      7 C7           4.0970    -0.0020     2.4900 ca         1 1S8      -0.185300
      8 C8           3.4480    -0.0070     1.2750 ca         1 1S8       0.138100
      9 O9           4.1730    -0.0070     0.1260 oh         1 1S8      -0.485100
     10 N10          3.9310    -0.0010     4.8810 nb         1 1S8      -0.660000
     11 C11          3.2010    -0.0010     5.9720 ca         1 1S8       0.646300
     12 N12          1.8780    -0.0000     5.9530 nb         1 1S8      -0.702000
     13 C13          1.2010     0.0000     4.8120 ca         1 1S8       0.537200
     14 N14         -0.1790     0.0010     4.8070 nu         1 1S8      -0.282300
     15 C15         -0.8830    -0.0900     6.0120 ca         1 1S8      -0.027400
     16 C16         -0.3810     0.5160     7.1580 ca         1 1S8      -0.102000
     17 C17         -1.0760     0.4270     8.3480 ca         1 1S8      -0.100000
     18 C18         -2.2770    -0.2700     8.3990 ca         1 1S8      -0.103400
     19 C19         -2.7780    -0.8760     7.2550 ca         1 1S8      -0.100000
     20 C20         -2.0870    -0.7820     6.0640 ca         1 1S8      -0.102000
     21 N21         -2.9810    -0.3610     9.6060 ns         1 1S8      -0.035100
     22 C22         -2.9780     0.6750    10.4690 c          1 1S8       0.586700
     23 O23         -2.3020     1.6580    10.2340 o          1 1S8      -0.637100
     24 C24         -3.7980     0.6160    11.6970 ca         1 1S8      -0.162600
     25 C25         -4.5700    -0.5130    11.9710 ca         1 1S8      -0.058000
     26 C26         -5.3330    -0.5620    13.1200 ca         1 1S8      -0.110500
     27 C27         -5.3310     0.5050    14.0000 ca         1 1S8      -0.075000
     28 C28         -4.5680     1.6290    13.7350 ca         1 1S8      -0.110500
     29 C29         -3.7970     1.6870    12.5920 ca         1 1S8      -0.058000
     30 C30          3.9020    -0.0020     7.3050 c3         1 1S8      -0.009400
     31 C31          4.1350    -1.4230     7.7500 ca         1 1S8      -0.087300
     32 C32          5.3030    -2.0740     7.3970 ca         1 1S8      -0.090000
     33 C33          5.5160    -3.3780     7.8040 ca         1 1S8      -0.105500
     34 C34          4.5630    -4.0290     8.5640 ca         1 1S8      -0.105000
     35 C35          3.3970    -3.3780     8.9170 ca         1 1S8      -0.105500
     36 C36          3.1860    -2.0730     8.5150 ca         1 1S8      -0.090000
     37 H1          -0.3610    -0.8960     0.4910 h1         1 1S8      -0.002300
     38 H2          -0.3610     0.0230    -1.0210 h1         1 1S8      -0.002300
     39 H3          -0.3610     0.8730     0.5300 h1         1 1S8      -0.002300
     40 H4           0.2200    -0.1060     2.2920 ha         1 1S8       0.122000
     41 H5           5.1800    -0.0070     2.5300 ha         1 1S8       0.133000
     42 H6           4.5580    -0.8580    -0.0030 ho         1 1S8       0.405000
     43 H7          -0.6760     0.0980     3.9430 hn         1 1S8       0.288800
     44 H8           0.5550     1.0590     7.1160 ha         1 1S8       0.125500
     45 H9          -0.6840     0.8990     9.2400 ha         1 1S8       0.125500
     46 H10         -3.7160    -1.4170     7.2950 ha         1 1S8       0.125500
     47 H11         -2.4790    -1.2540     5.1710 ha         1 1S8       0.125500
     48 H12         -3.4780    -1.1990     9.8330 hn         1 1S8       0.172500
     49 H13         -4.5720    -1.3490    11.2830 ha         1 1S8       0.113500
     50 H14         -5.9330    -1.4380    13.3340 ha         1 1S8       0.106500
     51 H15         -5.9340     0.4630    14.8990 ha         1 1S8       0.103000
     52 H16         -4.5700     2.4600    14.4290 ha         1 1S8       0.106500
     53 H17         -3.1990     2.5670    12.3840 ha         1 1S8       0.113500
     54 H18          3.2870     0.5090     8.0370 hc         1 1S8       0.034200
     55 H19          4.8530     0.5090     7.2140 hc         1 1S8       0.034200
     56 H20          6.0500    -1.5640     6.8010 ha         1 1S8       0.112500
     57 H21          6.4300    -3.8900     7.5280 ha         1 1S8       0.100500
     58 H22          4.7290    -5.0520     8.8810 ha         1 1S8       0.099000
     59 H23          2.6510    -3.8880     9.5150 ha         1 1S8       0.100500
     60 H24          2.2710    -1.5620     8.7920 ha         1 1S8       0.112500
@<TRIPOS>BOND
     1     1     2 1   
     2     1    37 1   
     3     1    38 1   
     4     1    39 1   
     5     2     3 1   
     6     3     4 ar  
     7     3     8 ar  
     8     4     5 ar  
     9     4    40 1   
    10     5     6 ar  
    11     5    13 ar  
    12     6     7 ar  
    13     6    10 ar  
    14     7     8 ar  
    15     7    41 1   
    16     8     9 1   
    17     9    42 1   
    18    10    11 ar  
    19    11    12 ar  
    20    11    30 1   
    21    12    13 ar  
    22    13    14 1   
    23    14    15 1   
    24    14    43 1   
    25    15    16 ar  
    26    15    20 ar  
    27    16    17 ar  
    28    16    44 1   
    29    17    18 ar  
    30    17    45 1   
    31    18    19 ar  
    32    18    21 1   
    33    19    20 ar  
    34    19    46 1   
    35    20    47 1   
    36    21    22 1   
    37    21    48 1   
    38    22    23 2   
    39    22    24 1   
    40    24    25 ar  
    41    24    29 ar  
    42    25    26 ar  
    43    25    49 1   
    44    26    27 ar  
    45    26    50 1   
    46    27    28 ar  
    47    27    51 1   
    48    28    29 ar  
    49    28    52 1   
    50    29    53 1   
    51    30    31 1   
    52    30    54 1   
    53    30    55 1   
    54    31    32 ar  
    55    31    36 ar  
    56    32    33 ar  
    57    32    56 1   
    58    33    34 ar  
    59    33    57 1   
    60    34    35 ar  
    61    34    58 1   
    62    35    36 ar  
    63    35    59 1   
    64    36    60 1   
@<TRIPOS>SUBSTRUCTURE
     1 1S8         1 TEMP              0 ****  ****    0 ROOT
