@<TRIPOS>MOLECULE
molecule
   60    64     1     0     0
SMALL
bcc


@<TRIPOS>ATOM
      1 C1           0.0000     0.0000     0.0000 c3         1 1S8       0.125700
      2 O2           1.4300     0.0000     0.0000 os         1 1S8      -0.311900
      3 C3           2.0470     0.0000     1.2110 ca         1 1S8       0.115100
      4 C4           1.2970     0.0000     2.3520 ca         1 1S8      -0.191000
      5 C5           1.9320    -0.0000     3.6000 ca         1 1S8      -0.296600
      6 C6           3.3470    -0.0020     3.6720 ca         1 1S8       0.466600
      7 C7           4.0970    -0.0020     2.4900 ca         1 1S8      -0.196300
      8 C8           3.4480    -0.0070     1.2750 ca         1 1S8       0.127100
      9 O9           4.1730    -0.0070     0.1260 oh         1 1S8      -0.502100
     10 N10          3.9310    -0.0010     4.8810 nb         1 1S8      -0.762000
     11 C11          3.2010    -0.0010     5.9720 ca         1 1S8       0.730300
     12 N12          1.8780    -0.0000     5.9530 nb         1 1S8      -0.811000
     13 C13          1.2010     0.0000     4.8120 ca         1 1S8       0.741200
     14 N14         -0.1790     0.0010     4.8070 nu         1 1S8      -0.755300
     15 C15         -0.8830    -0.0900     6.0120 ca         1 1S8       0.129600
     16 C16         -0.3810     0.5160     7.1580 ca         1 1S8      -0.127000
     17 C17         -1.0760     0.4270     8.3480 ca         1 1S8      -0.130000
     18 C18         -2.2770    -0.2700     8.3990 ca         1 1S8       0.039600
     19 C19         -2.7780    -0.8760     7.2550 ca         1 1S8      -0.130000
     20 C20         -2.0870    -0.7820     6.0640 ca         1 1S8      -0.127000
     21 N21         -2.9810    -0.3610     9.6060 ns         1 1S8      -0.475100
     22 C22         -2.9780     0.6750    10.4690 c          1 1S8       0.675700
     23 O23         -2.3020     1.6580    10.2340 o          1 1S8      -0.595100
     24 C24         -3.7980     0.6160    11.6970 ca         1 1S8      -0.149600
     25 C25         -4.5700    -0.5130    11.9710 ca         1 1S8      -0.085000
     26 C26         -5.3330    -0.5620    13.1200 ca         1 1S8      -0.137500
     27 C27         -5.3310     0.5050    14.0000 ca         1 1S8      -0.103000
     28 C28         -4.5680     1.6290    13.7350 ca         1 1S8      -0.137500
     29 C29         -3.7970     1.6870    12.5920 ca         1 1S8      -0.085000
     30 C30          3.9020    -0.0020     7.3050 c3         1 1S8      -0.061400
     31 C31          4.1350    -1.4230     7.7500 ca         1 1S8      -0.086300
     32 C32          5.3030    -2.0740     7.3970 ca         1 1S8      -0.111500
     33 C33          5.5160    -3.3780     7.8040 ca         1 1S8      -0.133000
     34 C34          4.5630    -4.0290     8.5640 ca         1 1S8      -0.127000
     35 C35          3.3970    -3.3780     8.9170 ca         1 1S8      -0.133000
     36 C36          3.1860    -2.0730     8.5150 ca         1 1S8      -0.111500
     37 H1          -0.3610    -0.8960     0.4910 h1         1 1S8       0.042033
     38 H2          -0.3610     0.0230    -1.0210 h1         1 1S8       0.042033
     39 H3          -0.3610     0.8730     0.5300 h1         1 1S8       0.042033
     40 H4           0.2200    -0.1060     2.2920 ha         1 1S8       0.133000
     41 H5           5.1800    -0.0070     2.5300 ha         1 1S8       0.166000
     42 H6           4.5580    -0.8580    -0.0030 ho         1 1S8       0.424000
     43 H7          -0.6760     0.0980     3.9430 hn         1 1S8       0.456800
     44 H8           0.5550     1.0590     7.1160 ha         1 1S8       0.150500
     45 H9          -0.6840     0.8990     9.2400 ha         1 1S8       0.149500
     46 H10         -3.7160    -1.4170     7.2950 ha         1 1S8       0.149500
     47 H11         -2.4790    -1.2540     5.1710 ha         1 1S8       0.150500
     48 H12         -3.4780    -1.1990     9.8330 hn         1 1S8       0.324500
     49 H13         -4.5720    -1.3490    11.2830 ha         1 1S8       0.140500
     50 H14         -5.9330    -1.4380    13.3340 ha         1 1S8       0.136000
     51 H15         -5.9340     0.4630    14.8990 ha         1 1S8       0.133000
     52 H16         -4.5700     2.4600    14.4290 ha         1 1S8       0.136000
     53 H17         -3.1990     2.5670    12.3840 ha         1 1S8       0.140500
     54 H18          3.2870     0.5090     8.0370 hc         1 1S8       0.072200
     55 H19          4.8530     0.5090     7.2140 hc         1 1S8       0.072200
     56 H20          6.0500    -1.5640     6.8010 ha         1 1S8       0.138500
     57 H21          6.4300    -3.8900     7.5280 ha         1 1S8       0.128000
     58 H22          4.7290    -5.0520     8.8810 ha         1 1S8       0.126000
     59 H23          2.6510    -3.8880     9.5150 ha         1 1S8       0.128000
     60 H24          2.2710    -1.5620     8.7920 ha         1 1S8       0.138500
@<TRIPOS>BOND
     1    26    25 ar  
     2    26    27 ar  
     3    25    24 ar  
     4    27    28 ar  
     5    34    35 ar  
     6    34    33 ar  
     7    35    36 ar  
     8    33    32 ar  
     9    24    22 1   
    10    24    29 ar  
    11    23    22 2   
    12    28    29 ar  
    13    36    31 ar  
    14    32    31 ar  
    15    22    21 1   
    16    31    30 1   
    17    30    11 1   
    18    21    18 1   
    19    19    18 ar  
    20    19    20 ar  
    21    18    17 ar  
    22    11    12 ar  
    23    11    10 ar  
    24    20    15 ar  
    25    12    13 ar  
    26    10     6 ar  
    27    17    16 ar  
    28    15    16 ar  
    29    15    14 1   
    30    13    14 1   
    31    13     5 ar  
    32     6     5 ar  
    33     6     7 ar  
    34     5     4 ar  
    35     7     8 ar  
    36     4     3 ar  
    37     8     3 ar  
    38     8     9 1   
    39     3     2 1   
    40     2     1 1   
    41     1    37 1   
    42     1    38 1   
    43     1    39 1   
    44     4    40 1   
    45     7    41 1   
    46     9    42 1   
    47    14    43 1   
    48    16    44 1   
    49    17    45 1   
    50    19    46 1   
    51    20    47 1   
    52    21    48 1   
    53    25    49 1   
    54    26    50 1   
    55    27    51 1   
    56    28    52 1   
    57    29    53 1   
    58    30    54 1   
    59    30    55 1   
    60    32    56 1   
    61    33    57 1   
    62    34    58 1   
    63    35    59 1   
    64    36    60 1   
@<TRIPOS>SUBSTRUCTURE
     1 1S8         1 TEMP              0 ****  ****    0 ROOT
