@<TRIPOS>MOLECULE
1S9
   52    55     1     0     0
SMALL
bcc


@<TRIPOS>ATOM
      1 C1           0.0000     0.0000     0.0000 c3         1 1S9       0.238700
      2 O2           1.4300     0.0000     0.0000 os         1 1S9      -0.268900
      3 C3           2.0470     0.0000     1.2120 ca         1 1S9       0.132100
      4 C4           1.2950     0.0010     2.3520 ca         1 1S9      -0.200000
      5 C5           1.9300     0.0010     3.6000 ca         1 1S9      -0.314600
      6 C6           3.3460     0.0000     3.6730 ca         1 1S9       0.455600
      7 C7           4.0960    -0.0000     2.4910 ca         1 1S9      -0.288300
      8 C8           3.4480    -0.0050     1.2750 ca         1 1S9       0.186100
      9 O9           4.1730    -0.0060     0.1270 os         1 1S9      -0.235900
     10 C10          5.5960    -0.0020     0.2590 c3         1 1S9       0.076400
     11 C11          6.2260    -0.0030    -1.1100 c          1 1S9       0.975600
     12 O12          7.5630     0.0010    -1.2320 o          1 1S9      -0.878300
     13 O13          5.5290    -0.0080    -2.0960 o          1 1S9      -0.878300
     14 N14          3.9280     0.0010     4.8820 nb         1 1S9      -0.671000
     15 C15          3.1990     0.0020     5.9730 ca         1 1S9       0.650900
     16 N16          1.8760     0.0030     5.9530 nb         1 1S9      -0.729000
     17 C17          1.2000     0.0020     4.8120 ca         1 1S9       0.534200
     18 N18         -0.1810     0.0040     4.8060 nu         1 1S9      -0.302300
     19 C19         -0.8850    -0.0840     6.0120 ca         1 1S9      -0.000400
     20 C20         -0.3830     0.5230     7.1560 ca         1 1S9      -0.112000
     21 C21         -1.0790     0.4350     8.3460 ca         1 1S9      -0.097500
     22 C22         -2.2800    -0.2600     8.3990 ca         1 1S9      -0.127400
     23 C23         -2.7820    -0.8670     7.2550 ca         1 1S9      -0.097500
     24 C24         -2.0900    -0.7750     6.0650 ca         1 1S9      -0.112000
     25 N25         -2.9850    -0.3500     9.6050 ns         1 1S9      -0.029100
     26 C26         -2.9810     0.6890    10.4660 c          1 1S9       0.580700
     27 O27         -2.3040     1.6710    10.2320 o          1 1S9      -0.636100
     28 C28         -3.8010     0.6320    11.6940 ca         1 1S9      -0.155600
     29 C29         -4.5750    -0.4960    11.9700 ca         1 1S9      -0.059000
     30 C30         -5.3330    -0.5450    13.1210 ca         1 1S9      -0.113500
     31 C31         -5.3280     0.5210    14.0020 ca         1 1S9      -0.082000
     32 C32         -4.5630     1.6430    13.7350 ca         1 1S9      -0.113500
     33 C33         -3.8000     1.7050    12.5880 ca         1 1S9      -0.059000
     34 H1          -0.3610     0.0230    -1.0210 h1         1 1S9      -0.009300
     35 H2          -0.3610     0.8730     0.5310 h1         1 1S9      -0.009300
     36 H3          -0.3610    -0.8960     0.4900 h1         1 1S9      -0.009300
     37 H4           0.2190    -0.1040     2.2920 ha         1 1S9       0.114000
     38 H5           5.1780    -0.0040     2.5320 ha         1 1S9       0.157000
     39 H6           5.9050     0.8850     0.7980 h1         1 1S9       0.001700
     40 H7           5.9110    -0.8840     0.8030 h1         1 1S9       0.001700
     41 H9           3.7750    -0.0340     6.8900 h5         1 1S9      -0.011900
     42 H10         -0.6780     0.1070     3.9440 hn         1 1S9       0.290800
     43 H11          0.5530     1.0650     7.1150 ha         1 1S9       0.128000
     44 H12         -0.6870     0.9090     9.2380 ha         1 1S9       0.120500
     45 H13         -3.7200    -1.4080     7.2950 ha         1 1S9       0.120500
     46 H14         -2.4810    -1.2480     5.1730 ha         1 1S9       0.128000
     47 H15         -3.4500    -1.2010     9.8510 hn         1 1S9       0.167500
     48 H16         -4.5800    -1.3320    11.2810 ha         1 1S9       0.114500
     49 H17         -5.9340    -1.4210    13.3350 ha         1 1S9       0.104000
     50 H18         -5.9260     0.4780    14.9050 ha         1 1S9       0.100000
     51 H19         -4.5630     2.4750    14.4290 ha         1 1S9       0.104000
     52 H20         -3.2020     2.5840    12.3810 ha         1 1S9       0.114500
@<TRIPOS>BOND
     1     1     2 1   
     2     1    34 1   
     3     1    35 1   
     4     1    36 1   
     5     2     3 1   
     6     3     4 ar  
     7     3     8 ar  
     8     4     5 ar  
     9     4    37 1   
    10     5     6 ar  
    11     5    17 ar  
    12     6     7 ar  
    13     6    14 ar  
    14     7     8 ar  
    15     7    38 1   
    16     8     9 1   
    17     9    10 1   
    18    10    11 1   
    19    10    39 1   
    20    10    40 1   
    21    11    12 1   
    22    11    13 1   
    23    14    15 ar  
    24    15    16 ar  
    25    15    41 1   
    26    16    17 ar  
    27    17    18 1   
    28    18    19 1   
    29    18    42 1   
    30    19    20 ar  
    31    19    24 ar  
    32    20    21 ar  
    33    20    43 1   
    34    21    22 ar  
    35    21    44 1   
    36    22    23 ar  
    37    22    25 1   
    38    23    24 ar  
    39    23    45 1   
    40    24    46 1   
    41    25    26 1   
    42    25    47 1   
    43    26    27 2   
    44    26    28 1   
    45    28    29 ar  
    46    28    33 ar  
    47    29    30 ar  
    48    29    48 1   
    49    30    31 ar  
    50    30    49 1   
    51    31    32 ar  
    52    31    50 1   
    53    32    33 ar  
    54    32    51 1   
    55    33    52 1   
@<TRIPOS>SUBSTRUCTURE
     1 1S9         1 TEMP              0 ****  ****    0 ROOT
