@<TRIPOS>MOLECULE
1S9
   52    55     1     0     0
SMALL
bcc


@<TRIPOS>ATOM
      1 C1           1.3920    -0.3420    -0.7520 c3         1 1S9       0.096700
      2 O2           2.1350     0.6690    -0.0580 os         1 1S9      -0.353900
      3 C3           2.3780     0.3860     1.2730 ca         1 1S9       0.106100
      4 C4           1.9250     1.2870     2.2150 ca         1 1S9      -0.126000
      5 C5           2.2180     1.1060     3.5860 ca         1 1S9      -0.298600
      6 C6           2.9940    -0.0290     3.9920 ca         1 1S9       0.452600
      7 C7           3.4410    -0.9560     3.0090 ca         1 1S9      -0.257300
      8 C8           3.1580    -0.7540     1.6690 ca         1 1S9       0.196100
      9 O9           3.6620    -1.5060     0.6460 os         1 1S9      -0.322900
     10 C10          3.8710    -2.9070     0.8820 c3         1 1S9      -0.005600
     11 C11          2.5590    -3.7120     0.9900 c          1 1S9       0.899600
     12 O12          2.6870    -4.9520     1.1700 o          1 1S9      -0.824800
     13 O13          1.4610    -3.0990     0.8790 o          1 1S9      -0.824800
     14 N14          3.3270    -0.2290     5.3230 nb         1 1S9      -0.706000
     15 C15          2.8730     0.6760     6.1840 ca         1 1S9       0.644900
     16 N16          2.0960     1.7850     5.9350 nb         1 1S9      -0.783000
     17 C17          1.7670     2.0040     4.6440 ca         1 1S9       0.682200
     18 N18          1.0050     3.1330     4.2780 nu         1 1S9      -0.720300
     19 C19          0.3900     3.9790     5.2250 ca         1 1S9       0.130600
     20 C20         -0.9810     4.2990     5.0980 ca         1 1S9      -0.124000
     21 C21         -1.5860     5.2020     5.9580 ca         1 1S9      -0.148000
     22 C22         -0.8500     5.8160     6.9970 ca         1 1S9       0.033600
     23 C23          0.5170     5.4970     7.1270 ca         1 1S9      -0.148000
     24 C24          1.1240     4.6020     6.2550 ca         1 1S9      -0.124000
     25 N25         -1.5210     6.6960     7.8670 ns         1 1S9      -0.463100
     26 C26         -0.9480     7.6190     8.7260 c          1 1S9       0.674700
     27 O27          0.2810     7.7770     8.8460 o          1 1S9      -0.587100
     28 C28         -1.9080     8.4510     9.5170 ca         1 1S9      -0.142600
     29 C29         -1.6370     9.8170     9.6570 ca         1 1S9      -0.093000
     30 C30         -2.4990    10.6230    10.3990 ca         1 1S9      -0.139000
     31 C31         -3.6250    10.0680    11.0080 ca         1 1S9      -0.114000
     32 C32         -3.8870     8.7040    10.8800 ca         1 1S9      -0.139000
     33 C33         -3.0310     7.8930    10.1340 ca         1 1S9      -0.093000
     34 H1           0.3090    -0.0740    -0.6840 h1         1 1S9       0.058367
     35 H2           1.5720    -1.3690    -0.3320 h1         1 1S9       0.058367
     36 H3           1.7520    -0.2680    -1.8070 h1         1 1S9       0.058367
     37 H4           1.3490     2.1520     1.8560 ha         1 1S9       0.133000
     38 H5           4.0030    -1.8460     3.3340 ha         1 1S9       0.167000
     39 H6           4.5160    -3.0640     1.7800 h1         1 1S9       0.044700
     40 H7           4.4260    -3.2180    -0.0420 h1         1 1S9       0.044700
     41 H9           3.1320     0.5310     7.2540 h5         1 1S9       0.037100
     42 H10          0.4480     2.9780     3.4610 hn         1 1S9       0.424800
     43 H11         -1.5890     3.8340     4.3060 ha         1 1S9       0.146000
     44 H12         -2.6550     5.4260     5.8220 ha         1 1S9       0.145000
     45 H13          1.1250     5.9630     7.9200 ha         1 1S9       0.145000
     46 H14          2.1950     4.3800     6.3870 ha         1 1S9       0.146000
     47 H15         -2.5130     6.7060     7.7840 hn         1 1S9       0.314500
     48 H16         -0.7350    10.2400     9.1880 ha         1 1S9       0.147000
     49 H17         -2.2870    11.6970    10.5060 ha         1 1S9       0.135000
     50 H18         -4.3030    10.7050    11.5940 ha         1 1S9       0.132000
     51 H19         -4.7680     8.2640    11.3690 ha         1 1S9       0.135000
     52 H20         -3.2370     6.8150    10.0530 ha         1 1S9       0.147000
@<TRIPOS>BOND
     1     1     2 1   
     2     1    34 1   
     3     1    35 1   
     4     1    36 1   
     5     2     3 1   
     6     3     4 ar  
     7     3     8 ar  
     8     4     5 ar  
     9     4    37 1   
    10     5     6 ar  
    11     5    17 ar  
    12     6     7 ar  
    13     6    14 ar  
    14     7     8 ar  
    15     7    38 1   
    16     8     9 1   
    17     9    10 1   
    18    10    11 1   
    19    10    39 1   
    20    10    40 1   
    21    11    12 1   
    22    11    13 1   
    23    14    15 ar  
    24    15    16 ar  
    25    15    41 1   
    26    16    17 ar  
    27    17    18 1   
    28    18    19 1   
    29    18    42 1   
    30    19    20 ar  
    31    19    24 ar  
    32    20    21 ar  
    33    20    43 1   
    34    21    22 ar  
    35    21    44 1   
    36    22    23 ar  
    37    22    25 1   
    38    23    24 ar  
    39    23    45 1   
    40    24    46 1   
    41    25    26 1   
    42    25    47 1   
    43    26    27 2   
    44    26    28 1   
    45    28    29 ar  
    46    28    33 ar  
    47    29    30 ar  
    48    29    48 1   
    49    30    31 ar  
    50    30    49 1   
    51    31    32 ar  
    52    31    50 1   
    53    32    33 ar  
    54    32    51 1   
    55    33    52 1   
@<TRIPOS>SUBSTRUCTURE
     1 1S9         1 TEMP              0 ****  ****    0 ROOT
