@<TRIPOS>MOLECULE
molecule
   52    55     1     0     0
SMALL
bcc


@<TRIPOS>ATOM
      1 C1           0.0000     0.0000     0.0000 c3         1 1S9       0.127700
      2 O2           1.4300     0.0000     0.0000 os         1 1S9      -0.290900
      3 C3           2.0470     0.0000     1.2120 ca         1 1S9       0.126100
      4 C4           1.2950     0.0010     2.3520 ca         1 1S9      -0.203000
      5 C5           1.9300     0.0010     3.6000 ca         1 1S9      -0.321600
      6 C6           3.3460     0.0000     3.6730 ca         1 1S9       0.486600
      7 C7           4.0960    -0.0000     2.4910 ca         1 1S9      -0.292300
      8 C8           3.4480    -0.0050     1.2750 ca         1 1S9       0.185100
      9 O9           4.1730    -0.0060     0.1270 os         1 1S9      -0.259900
     10 C10          5.5960    -0.0020     0.2590 c3         1 1S9       0.011400
     11 C11          6.2260    -0.0030    -1.1100 c          1 1S9       0.895600
     12 O12          7.5630     0.0010    -1.2320 o          1 1S9      -0.821800
     13 O13          5.5290    -0.0080    -2.0960 o          1 1S9      -0.821800
     14 N14          3.9280     0.0010     4.8820 nb         1 1S9      -0.766000
     15 C15          3.1990     0.0020     5.9730 ca         1 1S9       0.698900
     16 N16          1.8760     0.0030     5.9530 nb         1 1S9      -0.835000
     17 C17          1.2000     0.0020     4.8120 ca         1 1S9       0.732200
     18 N18         -0.1810     0.0040     4.8060 nu         1 1S9      -0.766300
     19 C19         -0.8850    -0.0840     6.0120 ca         1 1S9       0.149600
     20 C20         -0.3830     0.5230     7.1560 ca         1 1S9      -0.133000
     21 C21         -1.0790     0.4350     8.3460 ca         1 1S9      -0.128500
     22 C22         -2.2800    -0.2600     8.3990 ca         1 1S9       0.020600
     23 C23         -2.7820    -0.8670     7.2550 ca         1 1S9      -0.128500
     24 C24         -2.0900    -0.7750     6.0650 ca         1 1S9      -0.133000
     25 N25         -2.9850    -0.3500     9.6050 ns         1 1S9      -0.472100
     26 C26         -2.9810     0.6890    10.4660 c          1 1S9       0.672700
     27 O27         -2.3040     1.6710    10.2320 o          1 1S9      -0.594100
     28 C28         -3.8010     0.6320    11.6940 ca         1 1S9      -0.144600
     29 C29         -4.5750    -0.4960    11.9700 ca         1 1S9      -0.085500
     30 C30         -5.3330    -0.5450    13.1210 ca         1 1S9      -0.139500
     31 C31         -5.3280     0.5210    14.0020 ca         1 1S9      -0.108000
     32 C32         -4.5630     1.6430    13.7350 ca         1 1S9      -0.139500
     33 C33         -3.8000     1.7050    12.5880 ca         1 1S9      -0.085500
     34 H1          -0.3610     0.0230    -1.0210 h1         1 1S9       0.033700
     35 H2          -0.3610     0.8730     0.5310 h1         1 1S9       0.033700
     36 H3          -0.3610    -0.8960     0.4900 h1         1 1S9       0.033700
     37 H4           0.2190    -0.1040     2.2920 ha         1 1S9       0.122000
     38 H5           5.1780    -0.0040     2.5320 ha         1 1S9       0.177000
     39 H6           5.9050     0.8850     0.7980 h1         1 1S9       0.033700
     40 H7           5.9110    -0.8840     0.8030 h1         1 1S9       0.033700
     41 H9           3.7750    -0.0340     6.8900 h5         1 1S9       0.047100
     42 H10         -0.6780     0.1070     3.9440 hn         1 1S9       0.455800
     43 H11          0.5530     1.0650     7.1150 ha         1 1S9       0.153000
     44 H12         -0.6870     0.9090     9.2380 ha         1 1S9       0.143500
     45 H13         -3.7200    -1.4080     7.2950 ha         1 1S9       0.143500
     46 H14         -2.4810    -1.2480     5.1730 ha         1 1S9       0.153000
     47 H15         -3.4500    -1.2010     9.8510 hn         1 1S9       0.320500
     48 H16         -4.5800    -1.3320    11.2810 ha         1 1S9       0.142000
     49 H17         -5.9340    -1.4210    13.3350 ha         1 1S9       0.132500
     50 H18         -5.9260     0.4780    14.9050 ha         1 1S9       0.129000
     51 H19         -4.5630     2.4750    14.4290 ha         1 1S9       0.132500
     52 H20         -3.2020     2.5840    12.3810 ha         1 1S9       0.142000
@<TRIPOS>BOND
     1    30    31 ar  
     2    30    29 ar  
     3    31    32 ar  
     4    29    28 ar  
     5    32    33 ar  
     6    28    33 ar  
     7    28    26 1   
     8    27    26 2   
     9    26    25 1   
    10    25    22 1   
    11    23    22 ar  
    12    23    24 ar  
    13    22    21 ar  
    14    15    16 ar  
    15    15    14 ar  
    16    24    19 ar  
    17    16    17 ar  
    18    21    20 ar  
    19    14     6 ar  
    20    19    20 ar  
    21    19    18 1   
    22    17    18 1   
    23    17     5 ar  
    24     6     5 ar  
    25     6     7 ar  
    26     5     4 ar  
    27     7     8 ar  
    28    13    11 1   
    29     4     3 ar  
    30    11    12 1   
    31    11    10 1   
    32     8     3 ar  
    33     8     9 1   
    34    10     9 1   
    35     3     2 1   
    36     2     1 1   
    37     1    34 1   
    38     1    35 1   
    39     1    36 1   
    40     4    37 1   
    41     7    38 1   
    42    10    39 1   
    43    10    40 1   
    44    15    41 1   
    45    18    42 1   
    46    20    43 1   
    47    21    44 1   
    48    23    45 1   
    49    24    46 1   
    50    25    47 1   
    51    29    48 1   
    52    30    49 1   
    53    31    50 1   
    54    32    51 1   
    55    33    52 1   
@<TRIPOS>SUBSTRUCTURE
     1 1S9         1 TEMP              0 ****  ****    0 ROOT
