@<TRIPOS>MOLECULE
1SA
   15    15     1     0     0
SMALL
bcc


@<TRIPOS>ATOM
      1 S1           0.0240    -0.2000     0.3080 sy         1 1SA       1.478800
      2 O1           1.3600     0.1370     0.3350 o          1 1SA      -0.570800
      3 O2          -0.7940     0.0700     1.3760 o          1 1SA      -0.570800
      4 N1          -0.6450     1.0880    -0.9340 nz         1 1SA      -0.780500
      5 N2          -1.6210    -1.8210    -0.8550 nc         1 1SA      -0.150000
      6 N3          -1.8040    -2.9090    -1.4150 nc         1 1SA      -0.316000
      7 S2           0.7610    -2.7640    -1.0180 ss         1 1SA       0.084200
      8 C1          -0.2810    -1.5150    -0.5210 cd         1 1SA      -0.318700
      9 C2          -0.5730    -3.6590    -1.6060 cd         1 1SA       0.655300
     10 N4          -0.5500    -4.8670    -2.1760 nv         1 1SA      -0.851500
     11 HN11        -1.4510     1.5690    -0.5340 hn         1 1SA       0.457133
     12 HN12        -0.9390     0.6730    -1.8130 hn         1 1SA       0.457133
     13 HN41        -1.3950    -5.3060    -2.4840 hn         1 1SA       0.484800
     14 HN42         0.3070    -5.3640    -2.2810 hn         1 1SA       0.484800
     15 H13          0.0650     1.7870    -1.1410 hn         1 1SA       0.457133
@<TRIPOS>BOND
     1     1     2 2   
     2     1     3 2   
     3     1     4 1   
     4     1     8 1   
     5     4    11 1   
     6     4    12 1   
     7     4    15 1   
     8     5     6 1   
     9     5     8 2   
    10     6     9 2   
    11     7     8 1   
    12     7     9 1   
    13     9    10 1   
    14    10    13 1   
    15    10    14 1   
@<TRIPOS>SUBSTRUCTURE
     1 1SA         1 TEMP              0 ****  ****    0 ROOT
