@<TRIPOS>MOLECULE
molecule
   15    15     1     0     0
SMALL
bcc


@<TRIPOS>ATOM
      1 S1           0.0000     0.0000     0.0000 sy         1 1SA       1.244800
      2 O1           1.4210     0.0000     0.0000 o          1 1SA      -0.506800
      3 O2          -0.8220     0.0000     1.1590 o          1 1SA      -0.506800
      4 N1          -0.4500     1.3350    -0.8710 nz         1 1SA      -0.804500
      5 N2          -1.0830    -1.5060    -2.0930 nc         1 1SA      -0.218000
      6 N3          -1.3550    -2.6140    -2.6300 nc         1 1SA      -0.425000
      7 S2          -0.2820    -3.1600    -0.5480 ss         1 1SA      -0.190800
      8 C1          -0.4780    -1.4200    -0.9260 cd         1 1SA       0.064300
      9 C2          -1.0570    -3.7670    -2.0450 cd         1 1SA       0.785300
     10 N4          -1.2770    -5.0670    -2.4710 nv         1 1SA      -0.905500
     11 HN11        -0.1920     2.1620    -0.3710 hn         1 1SA       0.499133
     12 HN12         0.0100     1.3240    -1.7600 hn         1 1SA       0.499133
     13 HN41        -1.7020    -5.2370    -3.3610 hn         1 1SA       0.483300
     14 HN42        -1.0120    -5.8370    -1.8890 hn         1 1SA       0.483300
     15 H13         -1.4420     1.3270    -1.0050 hn         1 1SA       0.499133
@<TRIPOS>BOND
     1     1     2 2   
     2     1     3 2   
     3     1     4 1   
     4     1     8 1   
     5     4    11 1   
     6     4    12 1   
     7     5     6 1   
     8     5     8 2   
     9     6     9 2   
    10     7     8 1   
    11     7     9 1   
    12     9    10 1   
    13    10    13 1   
    14    10    14 1   
    15    15     4 1   
@<TRIPOS>SUBSTRUCTURE
     1 1SA         1 TEMP              0 ****  ****    0 ROOT
