@<TRIPOS>MOLECULE
1SB
   37    39     1     0     0
SMALL
bcc


@<TRIPOS>ATOM
      1 C1           0.0000     0.0000     0.0000 ca         1 1SB      -0.029000
      2 N1          -1.6660    -1.6690    -2.8870 ns         1 1SB       0.089000
      3 O1          -0.6100    -2.3440    -1.0560 o          1 1SB      -0.342000
      4 C2          -0.7530    -0.0010    -1.3050 c3         1 1SB      -0.073000
      5 N2          -1.8990    -2.9900    -3.2910 n2         1 1SB       0.019000
      6 O2          -0.6760     0.0010     3.5750 os         1 1SB      -0.192000
      7 C3          -1.0040    -1.4220    -1.7390 c2         1 1SB       0.210000
      8 O3          -3.4700    -8.5120    -6.0120 oh         1 1SB      -0.256000
      9 C4          -2.5370    -3.2280    -4.3960 c2         1 1SB      -0.476000
     10 C5          -2.7820    -4.6180    -4.8220 c3         1 1SB      -0.143000
     11 C6           1.3830     0.0000     0.0000 ca         1 1SB      -0.129000
     12 C7           2.0760     0.0000     1.1960 ca         1 1SB      -0.053000
     13 C8           1.3900    -0.0000     2.3940 ca         1 1SB      -0.208000
     14 C9           0.0020     0.0000     2.3970 ca         1 1SB       0.110000
     15 C10          0.1030     0.0010     4.7730 c3         1 1SB       0.055000
     16 C11         -0.6920     0.0060     1.1960 ca         1 1SB      -0.123000
     17 C12         -3.4680    -4.8770    -6.0110 c2         1 1SB      -0.036000
     18 C13         -3.6950    -6.1770    -6.4040 c2         1 1SB      -0.158000
     19 C14         -3.2440    -7.2310    -5.6200 c2         1 1SB       0.117000
     20 C15         -2.5610    -6.9790    -4.4380 c2         1 1SB      -0.158000
     21 C16         -2.3240    -5.6810    -4.0390 c2         1 1SB      -0.036000
     22 HN1         -2.0110    -0.9090    -3.4400 hn         1 1SB       0.085000
     23 H2          -0.1670     0.5090    -2.0600 hc         1 1SB       0.073000
     24 H2A         -1.6990     0.5100    -1.1770 hc         1 1SB       0.073000
     25 HO3         -4.2910    -8.8090    -5.6580 ho         1 1SB       0.209000
     26 H4          -1.7930    -3.8670    -4.8570 DU         1 1SB       0.327000
     27 H6           1.9240     0.0000    -0.9390 ha         1 1SB       0.104000
     28 H7           3.1600    -0.0000     1.1930 ha         1 1SB       0.099000
     29 H8           1.9340    -0.0000     3.3310 ha         1 1SB       0.119000
     30 H10         -0.5560     0.0010     5.6330 h1         1 1SB       0.036333
     31 H10A         0.7290     0.8850     4.7970 h1         1 1SB       0.036333
     32 H10B         0.7280    -0.8840     4.7980 h1         1 1SB       0.036333
     33 H11         -1.7730     0.0660     1.1960 ha         1 1SB       0.116000
     34 H12         -3.8210    -4.0560    -6.6230 ha         1 1SB       0.128000
     35 H13         -4.2270    -6.3780    -7.3260 ha         1 1SB       0.120500
     36 H15         -2.2060    -7.8040    -3.8320 ha         1 1SB       0.120500
     37 H16         -1.7910    -5.4850    -3.1160 ha         1 1SB       0.128000
@<TRIPOS>BOND
     1     1     4 1   
     2     1    11 1   
     3     1    16 1   
     4     2     5 1   
     5     2     7 1   
     6     2    22 1   
     7     3     7 1   
     8     4     7 1   
     9     4    23 1   
    10     4    24 1   
    11     5     9 1   
    12     6    14 1   
    13     6    15 1   
    14     8    19 1   
    15     8    25 1   
    16     9    10 1   
    17     9    26 1   
    18    10    17 1   
    19    10    21 1   
    20    10    26 1   
    21    11    12 1   
    22    11    27 1   
    23    12    13 1   
    24    12    28 1   
    25    13    14 1   
    26    13    29 1   
    27    14    16 1   
    28    15    30 1   
    29    15    31 1   
    30    15    32 1   
    31    16    33 1   
    32    17    18 1   
    33    17    34 1   
    34    18    19 1   
    35    18    35 1   
    36    19    20 1   
    37    20    21 1   
    38    20    36 1   
    39    21    37 1   
@<TRIPOS>SUBSTRUCTURE
     1 1SB         1 TEMP              0 ****  ****    0 ROOT
