@<TRIPOS>MOLECULE
1SB
   38    39     1     0     0
SMALL
bcc


@<TRIPOS>ATOM
      1 C1          -0.5920    -0.1690    -0.5960 ca         1 1SB      -0.128300
      2 N1           1.5320    -1.1350    -2.3360 ny         1 1SB      -0.368900
      3 O1           0.7080    -3.2720    -1.8590 o          1 1SB      -0.434100
      4 C2          -0.8260    -1.4310    -1.3460 c3         1 1SB      -0.099100
      5 N2           1.8910    -1.2200    -3.6840 n2         1 1SB      -0.585400
      6 O2           0.0620     1.0560     2.8400 os         1 1SB      -0.308900
      7 C3           0.4420    -2.0810    -1.8200 c          1 1SB       0.544100
      8 O3           3.9150    -3.0190    -9.5380 oh         1 1SB      -0.463100
      9 C4           2.3170    -2.3470    -4.2130 ce         1 1SB       0.571800
     10 C5           2.7150    -2.4510    -5.6000 ca         1 1SB      -0.266900
     11 C6          -0.6450     1.0600    -1.2590 ca         1 1SB      -0.181000
     12 C7          -0.4610     2.2480    -0.5440 ca         1 1SB      -0.086000
     13 C8          -0.2270     2.2210     0.8230 ca         1 1SB      -0.122000
     14 C9          -0.1830     0.9770     1.4910 ca         1 1SB       0.149100
     15 C10         -0.0530    -0.1530     3.5870 c3         1 1SB       0.106700
     16 C11         -0.3640    -0.2190     0.7850 ca         1 1SB      -0.199000
     17 C12          2.7040    -1.3570    -6.4850 ca         1 1SB      -0.016000
     18 C13          3.0990    -1.5150    -7.8050 ca         1 1SB      -0.204500
     19 C14          3.5130    -2.7810    -8.2590 ca         1 1SB       0.210100
     20 C15          3.5290    -3.8900    -7.3830 ca         1 1SB      -0.204500
     21 C16          3.1340    -3.7180    -6.0700 ca         1 1SB      -0.016000
     22 HN1          2.3580    -1.2510    -1.7260 hn         1 1SB       0.469800
     23 H2          -1.4690    -1.2440    -2.2540 hc         1 1SB       0.125700
     24 H2A         -1.3630    -2.1840    -0.7000 hc         1 1SB       0.125700
     25 HO3          3.8650    -2.1920   -10.0460 ho         1 1SB       0.444000
     26 H4           2.3960    -3.3040    -3.6370 h4         1 1SB       0.031800
     27 H6          -0.8740     1.1050    -2.3360 ha         1 1SB       0.141000
     28 H7          -0.5160     3.2150    -1.0710 ha         1 1SB       0.159000
     29 H8          -0.0860     3.1470     1.4010 ha         1 1SB       0.175000
     30 H10         -1.0690    -0.6000     3.4630 h1         1 1SB       0.056367
     31 H10A         0.7410    -0.8770     3.2800 h1         1 1SB       0.056367
     32 H10B         0.1070     0.1850     4.6430 h1         1 1SB       0.056367
     33 H11         -0.3530    -1.1860     1.3080 ha         1 1SB       0.149000
     34 H12          2.3820    -0.3600    -6.1390 ha         1 1SB       0.152000
     35 H13          3.0900    -0.6570    -8.4950 ha         1 1SB       0.168500
     36 H15          3.8570    -4.8700    -7.7620 ha         1 1SB       0.168500
     37 H16          3.1460    -4.5820    -5.3850 ha         1 1SB       0.152000
     38 H121         1.1900    -0.1580    -2.2370 hn         1 1SB       0.469800
@<TRIPOS>BOND
     1     1     4 1   
     2     1    11 ar  
     3     1    16 ar  
     4     2     5 1   
     5     2     7 1   
     6     2    22 1   
     7     2    38 1   
     8     3     7 2   
     9     4     7 1   
    10     4    23 1   
    11     4    24 1   
    12     5     9 2   
    13     6    14 1   
    14     6    15 1   
    15     8    19 1   
    16     8    25 1   
    17     9    10 1   
    18     9    26 1   
    19    10    17 ar  
    20    10    21 ar  
    21    11    12 ar  
    22    11    27 1   
    23    12    13 ar  
    24    12    28 1   
    25    13    14 ar  
    26    13    29 1   
    27    14    16 ar  
    28    15    30 1   
    29    15    31 1   
    30    15    32 1   
    31    16    33 1   
    32    17    18 ar  
    33    17    34 1   
    34    18    19 ar  
    35    18    35 1   
    36    19    20 ar  
    37    20    21 ar  
    38    20    36 1   
    39    21    37 1   
@<TRIPOS>SUBSTRUCTURE
     1 1SB         1 TEMP              0 ****  ****    0 ROOT
