@<TRIPOS>MOLECULE
molecule
   37    38     1     0     0
SMALL
bcc


@<TRIPOS>ATOM
      1 C1           0.0000     0.0000     0.0000 ca         1 1SB      -0.036300
      2 N1          -1.6660    -1.6690    -2.8870 ns         1 1SB      -0.360900
      3 O1          -0.6100    -2.3440    -1.0560 o          1 1SB      -0.543100
      4 C2          -0.7530    -0.0010    -1.3050 c3         1 1SB      -0.106100
      5 N2          -1.8990    -2.9900    -3.2910 n2         1 1SB      -0.410300
      6 O2          -0.6760     0.0010     3.5750 os         1 1SB      -0.329900
      7 C3          -1.0040    -1.4220    -1.7390 c          1 1SB       0.671100
      8 O3          -3.4700    -8.5120    -6.0120 oh         1 1SB      -0.522100
      9 C4          -2.5370    -3.2280    -4.3960 ce         1 1SB       0.385800
     10 C5          -2.7820    -4.6180    -4.8220 ca         1 1SB      -0.139900
     11 C6           1.3830     0.0000     0.0000 ca         1 1SB      -0.148000
     12 C7           2.0760     0.0000     1.1960 ca         1 1SB      -0.087000
     13 C8           1.3900    -0.0000     2.3940 ca         1 1SB      -0.215000
     14 C9           0.0020     0.0000     2.3970 ca         1 1SB       0.143100
     15 C10          0.1030     0.0010     4.7730 c3         1 1SB       0.129700
     16 C11         -0.6920     0.0060     1.1960 ca         1 1SB      -0.139000
     17 C12         -3.4680    -4.8770    -6.0110 ca         1 1SB      -0.087000
     18 C13         -3.6950    -6.1770    -6.4040 ca         1 1SB      -0.159500
     19 C14         -3.2440    -7.2310    -5.6200 ca         1 1SB       0.117100
     20 C15         -2.5610    -6.9790    -4.4380 ca         1 1SB      -0.159500
     21 C16         -2.3240    -5.6810    -4.0390 ca         1 1SB      -0.087000
     22 HN1         -1.9800    -0.9080    -3.4580 hn         1 1SB       0.296500
     23 H2          -1.6990     0.5100    -1.1770 hc         1 1SB       0.067200
     24 H2A         -0.1670     0.5090    -2.0600 hc         1 1SB       0.067200
     25 HO3         -4.2910    -8.8090    -5.6580 ho         1 1SB       0.421000
     26 H4          -2.8890    -2.4050    -5.0050 h4         1 1SB      -0.014200
     27 H6           1.9240     0.0000    -0.9390 ha         1 1SB       0.130000
     28 H7           3.1600    -0.0000     1.1930 ha         1 1SB       0.131000
     29 H8           1.9340    -0.0000     3.3310 ha         1 1SB       0.134000
     30 H10         -0.5560     0.0010     5.6330 h1         1 1SB       0.040700
     31 H10A         0.7290     0.8850     4.7970 h1         1 1SB       0.040700
     32 H10B         0.7280    -0.8840     4.7980 h1         1 1SB       0.040700
     33 H11         -1.7730     0.0660     1.1960 ha         1 1SB       0.142000
     34 H12         -3.8210    -4.0560    -6.6230 ha         1 1SB       0.148000
     35 H13         -4.2270    -6.3780    -7.3260 ha         1 1SB       0.144000
     36 H15         -2.2060    -7.8040    -3.8320 ha         1 1SB       0.144000
     37 H16         -1.7910    -5.4850    -3.1160 ha         1 1SB       0.148000
@<TRIPOS>BOND
     1     1     4 1
     2     1    11 ar
     3     1    16 ar
     4     2     5 1
     5     2     7 1
     6     3     7 2
     7     4     7 1
     8     5     9 2
     9     6    14 1
    10     6    15 1
    11     8    19 1
    12     9    10 1
    13    10    17 ar
    14    10    21 ar
    15    11    12 ar
    16    12    13 ar
    17    13    14 ar
    18    14    16 ar
    19    17    18 ar
    20    18    19 ar
    21    19    20 ar
    22    20    21 ar
    23     2    22 1
    24     4    23 1
    25     4    24 1
    26     8    25 1
    27     9    26 1
    28    11    27 1
    29    12    28 1
    30    13    29 1
    31    15    30 1
    32    15    31 1
    33    15    32 1
    34    16    33 1
    35    17    34 1
    36    18    35 1
    37    20    36 1
    38    21    37 1
@<TRIPOS>SUBSTRUCTURE
     1 1SB         1 TEMP              0 ****  ****    0 ROOT
