@<TRIPOS>MOLECULE
molecule
   29    29     1     0     0
SMALL
bcc


@<TRIPOS>ATOM
      1 O2           0.0000     0.0000     0.0000 oh         1 1SD      -0.601800
      2 C2           1.4290     0.0000     0.0000 c3         1 1SD       0.128100
      3 C3           1.9420     0.0000     1.4440 c3         1 1SD       0.136100
      4 O3           1.5310    -1.2030     2.0970 oh         1 1SD      -0.578800
      5 C4           3.4710     0.0780     1.4310 c3         1 1SD       0.101100
      6 O4           4.0040    -1.0830     0.7920 oh         1 1SD      -0.584800
      7 C5           3.9040     1.3290     0.6610 c3         1 1SD       0.147100
      8 C6           5.4310     1.3830     0.5920 c3         1 1SD       0.148400
      9 O6           5.8370     2.6070    -0.0230 oh         1 1SD      -0.624800
     10 O5           3.3680     1.2800    -0.6620 os         1 1SD      -0.397600
     11 C1           1.9400     1.2530    -0.7140 c3         1 1SD       0.058900
     12 SAI          1.3970     1.2270    -2.4460 s6         1 1SD       1.145900
     13 OAM          1.9690     0.1200    -3.1310 o          1 1SD      -0.500800
     14 OAE          0.0080     1.5070    -2.5360 o          1 1SD      -0.500800
     15 NAJ          2.1260     2.5490    -3.1270 nz         1 1SD      -0.804500
     16 HO2         -0.3140    -0.8550    -0.2430 ho         1 1SD       0.443000
     17 H2           1.7960    -0.8810    -0.5120 h1         1 1SD       0.102700
     18 H3           1.5410     0.8580     1.9690 h1         1 1SD       0.058700
     19 HO3          1.1250    -0.9910     2.9210 ho         1 1SD       0.426000
     20 H4           3.8370     0.1370     2.4490 h1         1 1SD       0.068700
     21 HO4          4.4180    -1.6340     1.4350 ho         1 1SD       0.427000
     22 H5           3.5290     2.2100     1.1680 h1         1 1SD       0.064700
     23 H6           5.8400     1.3290     1.5940 h1         1 1SD       0.057700
     24 H6A          5.7960     0.5470     0.0080 h1         1 1SD       0.057700
     25 HO6          6.7730     2.6960     0.0400 ho         1 1SD       0.428000
     26 H1           1.5460     2.1340    -0.2210 h2         1 1SD       0.103700
     27 HNAJ         1.7510     2.7020    -4.0420 hn         1 1SD       0.496133
     28 HNAA         1.9560     3.3540    -2.5570 hn         1 1SD       0.496133
     29 HAJ3         3.1120     2.3890    -3.1930 hn         1 1SD       0.496133
@<TRIPOS>BOND
     1     1     2 1   
     2     2     3 1   
     3     2    11 1   
     4     3     4 1   
     5     3     5 1   
     6     5     6 1   
     7     5     7 1   
     8     7     8 1   
     9     7    10 1   
    10     8     9 1   
    11    10    11 1   
    12    11    12 1   
    13    12    13 2   
    14    12    14 2   
    15    12    15 1   
    16     1    16 1   
    17     2    17 1   
    18     3    18 1   
    19     4    19 1   
    20     5    20 1   
    21     6    21 1   
    22     7    22 1   
    23     8    23 1   
    24     8    24 1   
    25     9    25 1   
    26    11    26 1   
    27    15    27 1   
    28    15    28 1   
    29    29    15 1   
@<TRIPOS>SUBSTRUCTURE
     1 1SD         1 TEMP              0 ****  ****    0 ROOT
