@<TRIPOS>MOLECULE
1SE
   42    44     1     0     0
SMALL
bcc


@<TRIPOS>ATOM
      1 C1           0.0000     0.0000     0.0000 ca         1 1SE      -0.080000
      2 C2           1.3860     0.0000     0.0000 ca         1 1SE      -0.197300
      3 C3           2.0650     0.0000     1.2080 ca         1 1SE       0.395200
      4 N4           1.4130    -0.0000     2.3490 nb         1 1SE      -0.573000
      5 C5           0.0870    -0.0000     2.3940 ca         1 1SE       0.308800
      6 C6          -0.6620    -0.0010     1.2180 ca         1 1SE      -0.147300
      7 C7          -0.6050    -0.0000     3.7040 c          1 1SE       0.475600
      8 O8          -1.8190    -0.0010     3.7500 o          1 1SE      -0.644100
      9 N9           0.1130    -0.0000     4.8450 ns         1 1SE      -0.009100
     10 C10         -0.5370     0.0960     6.0800 ca         1 1SE      -0.105400
     11 C11          0.0540     0.8000     7.1220 ca         1 1SE      -0.097500
     12 C12         -0.5860     0.8950     8.3410 ca         1 1SE      -0.100500
     13 C13         -1.8220     0.2880     8.5260 ca         1 1SE      -0.111400
     14 C14         -2.4130    -0.4160     7.4840 ca         1 1SE      -0.100500
     15 C15         -1.7750    -0.5060     6.2630 ca         1 1SE      -0.097500
     16 N16         -2.4710     0.3850     9.7620 ns         1 1SE      -0.025100
     17 C17         -2.3660     1.5130    10.4920 c          1 1SE       0.585700
     18 O18         -1.6390     2.4130    10.1190 o          1 1SE      -0.627100
     19 C19         -3.1320     1.6550    11.7460 ca         1 1SE      -0.209600
     20 C20         -3.9640     0.6190    12.1790 ca         1 1SE       0.003000
     21 C21         -4.6770     0.7560    13.3490 ca         1 1SE      -0.206000
     22 C22         -4.5700     1.9210    14.0980 ca         1 1SE       0.248100
     23 C23         -3.7440     2.9540    13.6700 ca         1 1SE      -0.494200
     24 C24         -3.0230     2.8230    12.5050 ca         1 1SE       0.082000
     25 N25         -3.6350     4.1940    14.4720 no         1 1SE       1.052200
     26 O26         -4.2680     4.3090    15.5060 o          1 1SE      -0.442000
     27 O27         -2.9100     5.0990    14.0970 o          1 1SE      -0.442000
     28 O28         -5.2750     2.0530    15.2510 oh         1 1SE      -0.453100
     29 H1          -0.5540    -0.0000    -0.9310 ha         1 1SE       0.113000
     30 H2           1.9330     0.0000    -0.9350 ha         1 1SE       0.114000
     31 H3           3.1490     0.0000     1.2110 h4         1 1SE      -0.016900
     32 H4          -1.7440    -0.0010     1.2560 ha         1 1SE       0.137000
     33 H5           1.1080    -0.1020     4.8090 hn         1 1SE       0.186500
     34 H6           1.0180     1.2730     6.9790 ha         1 1SE       0.128000
     35 H7          -0.1250     1.4430     9.1540 ha         1 1SE       0.125000
     36 H8          -3.3780    -0.8870     7.6270 ha         1 1SE       0.125000
     37 H9          -2.2350    -1.0540     5.4500 ha         1 1SE       0.128000
     38 H10         -3.0980    -0.3390    10.0530 hn         1 1SE       0.166500
     39 H11         -4.0480    -0.2900    11.5960 ha         1 1SE       0.105000
     40 H12         -5.3220    -0.0460    13.6870 ha         1 1SE       0.125000
     41 H13         -2.3790     3.6280    12.1720 ha         1 1SE       0.158000
     42 H14         -5.1340     1.2950    15.7950 ho         1 1SE       0.415000
@<TRIPOS>BOND
     1     1     2 ar  
     2     1     6 ar  
     3     1    29 1   
     4     2     3 ar  
     5     2    30 1   
     6     3     4 ar  
     7     3    31 1   
     8     4     5 ar  
     9     5     6 ar  
    10     5     7 1   
    11     6    32 1   
    12     7     8 2   
    13     7     9 1   
    14     9    10 1   
    15     9    33 1   
    16    10    11 ar  
    17    10    15 ar  
    18    11    12 ar  
    19    11    34 1   
    20    12    13 ar  
    21    12    35 1   
    22    13    14 ar  
    23    13    16 1   
    24    14    15 ar  
    25    14    36 1   
    26    15    37 1   
    27    16    17 1   
    28    16    38 1   
    29    17    18 2   
    30    17    19 1   
    31    19    20 ar  
    32    19    24 ar  
    33    20    21 ar  
    34    20    39 1   
    35    21    22 ar  
    36    21    40 1   
    37    22    23 ar  
    38    22    28 1   
    39    23    24 ar  
    40    23    25 1   
    41    24    41 1   
    42    25    26 1   
    43    25    27 1   
    44    28    42 1   
@<TRIPOS>SUBSTRUCTURE
     1 1SE         1 TEMP              0 ****  ****    0 ROOT
