@<TRIPOS>MOLECULE
1SE
   42    44     1     0     0
SMALL
bcc


@<TRIPOS>ATOM
      1 C1           1.8310    -0.6750     0.6860 ca         1 1SE      -0.102000
      2 C2           1.4570     0.3280    -0.2050 ca         1 1SE      -0.222300
      3 C3           0.3330     1.1180     0.1110 ca         1 1SE       0.393200
      4 N4          -0.4020     0.9580     1.2220 nb         1 1SE      -0.660000
      5 C5          -0.0280    -0.0220     2.0830 ca         1 1SE       0.348800
      6 C6           1.0830    -0.8590     1.8530 ca         1 1SE      -0.186300
      7 C7          -0.7900    -0.2490     3.3710 c          1 1SE       0.578600
      8 O8          -0.2430    -0.8930     4.2870 o          1 1SE      -0.597100
      9 N9          -2.0780     0.2450     3.4470 ns         1 1SE      -0.446100
     10 C10         -2.9400     0.1800     4.5560 ca         1 1SE       0.046600
     11 C11         -4.1490     0.9140     4.5110 ca         1 1SE      -0.143000
     12 C12         -5.0540     0.8780     5.5620 ca         1 1SE      -0.137500
     13 C13         -4.7910     0.1020     6.7080 ca         1 1SE       0.034600
     14 C14         -3.5830    -0.6310     6.7550 ca         1 1SE      -0.137500
     15 C15         -2.6780    -0.5940     5.7050 ca         1 1SE      -0.143000
     16 N16         -5.6600     0.0410     7.8140 ns         1 1SE      -0.460100
     17 C17         -6.9770     0.4630     7.8590 c          1 1SE       0.682700
     18 O18         -7.5670     0.9790     6.8910 o          1 1SE      -0.587100
     19 C19         -7.6970     0.2530     9.1520 ca         1 1SE      -0.193600
     20 C20         -9.0610    -0.0810     9.0850 ca         1 1SE       0.001000
     21 C21         -9.7930    -0.2740    10.2450 ca         1 1SE      -0.239000
     22 C22         -9.1780    -0.1230    11.5030 ca         1 1SE       0.214100
     23 C23         -7.8090     0.2300    11.5730 ca         1 1SE      -0.228200
     24 C24         -7.0770     0.4190    10.3860 ca         1 1SE      -0.012000
     25 N25         -7.1260     0.4090    12.8770 no         1 1SE       0.326200
     26 O26         -7.7600     0.3410    13.8920 o          1 1SE      -0.199000
     27 O27         -5.9400     0.6200    12.8720 o          1 1SE      -0.199000
     28 O28         -9.8550    -0.3090    12.6720 oh         1 1SE      -0.445100
     29 H1           2.7020    -1.3150     0.4810 ha         1 1SE       0.147000
     30 H2           2.0180     0.5070    -1.1320 ha         1 1SE       0.149000
     31 H3           0.0030     1.9280    -0.5660 h4         1 1SE       0.028100
     32 H4           1.3480    -1.6300     2.5930 ha         1 1SE       0.173000
     33 H5          -2.4120     0.7980     2.6870 hn         1 1SE       0.337500
     34 H6          -4.3940     1.5330     3.6330 ha         1 1SE       0.156000
     35 H7          -5.9850     1.4650     5.4810 ha         1 1SE       0.153000
     36 H8          -3.3370    -1.2470     7.6350 ha         1 1SE       0.153000
     37 H9          -1.7470    -1.1810     5.7880 ha         1 1SE       0.156000
     38 H10         -5.3010    -0.4350     8.6130 hn         1 1SE       0.320500
     39 H11         -9.5410    -0.1770     8.0950 ha         1 1SE       0.171000
     40 H12        -10.8600    -0.5390    10.1930 ha         1 1SE       0.154000
     41 H13         -6.0140     0.7160    10.4600 ha         1 1SE       0.179000
     42 H14        -10.7780    -0.5320    12.4610 ho         1 1SE       0.434000
@<TRIPOS>BOND
     1     1     2 ar  
     2     1     6 ar  
     3     1    29 1   
     4     2     3 ar  
     5     2    30 1   
     6     3     4 ar  
     7     3    31 1   
     8     4     5 ar  
     9     5     6 ar  
    10     5     7 1   
    11     6    32 1   
    12     7     8 2   
    13     7     9 1   
    14     9    10 1   
    15     9    33 1   
    16    10    11 ar  
    17    10    15 ar  
    18    11    12 ar  
    19    11    34 1   
    20    12    13 ar  
    21    12    35 1   
    22    13    14 ar  
    23    13    16 1   
    24    14    15 ar  
    25    14    36 1   
    26    15    37 1   
    27    16    17 1   
    28    16    38 1   
    29    17    18 2   
    30    17    19 1   
    31    19    20 ar  
    32    19    24 ar  
    33    20    21 ar  
    34    20    39 1   
    35    21    22 ar  
    36    21    40 1   
    37    22    23 ar  
    38    22    28 1   
    39    23    24 ar  
    40    23    25 1   
    41    24    41 1   
    42    25    26 1   
    43    25    27 1   
    44    28    42 1   
@<TRIPOS>SUBSTRUCTURE
     1 1SE         1 TEMP              0 ****  ****    0 ROOT
