@<TRIPOS>MOLECULE
molecule
   42    44     1     0     0
SMALL
bcc


@<TRIPOS>ATOM
      1 C1           0.0000     0.0000     0.0000 ca         1 1SE      -0.103000
      2 C2           1.3860     0.0000     0.0000 ca         1 1SE      -0.231300
      3 C3           2.0650     0.0000     1.2080 ca         1 1SE       0.415200
      4 N4           1.4130    -0.0000     2.3490 nb         1 1SE      -0.688000
      5 C5           0.0870    -0.0000     2.3940 ca         1 1SE       0.367800
      6 C6          -0.6620    -0.0010     1.2180 ca         1 1SE      -0.186300
      7 C7          -0.6050    -0.0000     3.7040 c          1 1SE       0.578600
      8 O8          -1.8190    -0.0010     3.7500 o          1 1SE      -0.597100
      9 N9           0.1130    -0.0000     4.8450 ns         1 1SE      -0.458100
     10 C10         -0.5370     0.0960     6.0800 ca         1 1SE       0.040600
     11 C11          0.0540     0.8000     7.1220 ca         1 1SE      -0.125500
     12 C12         -0.5860     0.8950     8.3410 ca         1 1SE      -0.128500
     13 C13         -1.8220     0.2880     8.5260 ca         1 1SE       0.032600
     14 C14         -2.4130    -0.4160     7.4840 ca         1 1SE      -0.128500
     15 C15         -1.7750    -0.5060     6.2630 ca         1 1SE      -0.125500
     16 N16         -2.4710     0.3850     9.7620 ns         1 1SE      -0.467100
     17 C17         -2.3660     1.5130    10.4920 c          1 1SE       0.675700
     18 O18         -1.6390     2.4130    10.1190 o          1 1SE      -0.582100
     19 C19         -3.1320     1.6550    11.7460 ca         1 1SE      -0.177600
     20 C20         -3.9640     0.6190    12.1790 ca         1 1SE      -0.043000
     21 C21         -4.6770     0.7560    13.3490 ca         1 1SE      -0.211000
     22 C22         -4.5700     1.9210    14.0980 ca         1 1SE       0.201100
     23 C23         -3.7440     2.9540    13.6700 ca         1 1SE      -0.191200
     24 C24         -3.0230     2.8230    12.5050 ca         1 1SE       0.011000
     25 N25         -3.6350     4.1940    14.4720 no         1 1SE       0.298200
     26 O26         -4.2680     4.3090    15.5060 o          1 1SE      -0.191500
     27 O27         -2.9100     5.0990    14.0970 o          1 1SE      -0.191500
     28 O28         -5.2750     2.0530    15.2510 oh         1 1SE      -0.472100
     29 H1          -0.5540    -0.0000    -0.9310 ha         1 1SE       0.146000
     30 H2           1.9330     0.0000    -0.9350 ha         1 1SE       0.143000
     31 H3           3.1490     0.0000     1.2110 h4         1 1SE       0.027100
     32 H4          -1.7440    -0.0010     1.2560 ha         1 1SE       0.166000
     33 H5           1.1080    -0.1020     4.8090 hn         1 1SE       0.345500
     34 H6           1.0180     1.2730     6.9790 ha         1 1SE       0.153000
     35 H7          -0.1250     1.4430     9.1540 ha         1 1SE       0.149000
     36 H8          -3.3780    -0.8870     7.6270 ha         1 1SE       0.149000
     37 H9          -2.2350    -1.0540     5.4500 ha         1 1SE       0.153000
     38 H10         -3.0980    -0.3390    10.0530 hn         1 1SE       0.320500
     39 H11         -4.0480    -0.2900    11.5960 ha         1 1SE       0.139000
     40 H12         -5.3220    -0.0460    13.6870 ha         1 1SE       0.155000
     41 H13         -2.3790     3.6280    12.1720 ha         1 1SE       0.197000
     42 H14         -5.1340     1.2950    15.7950 ho         1 1SE       0.436000
@<TRIPOS>BOND
     1     1     2 ar  
     2     1     6 ar  
     3     2     3 ar  
     4     6     5 ar  
     5     3     4 ar  
     6     5     4 ar  
     7     5     7 1   
     8     7     9 1   
     9     7     8 2   
    10     9    10 1   
    11    11    10 ar  
    12    11    12 ar  
    13    10    15 ar  
    14    12    13 ar  
    15    18    17 2   
    16    15    14 ar  
    17    13    14 ar  
    18    13    16 1   
    19    17    16 1   
    20    17    19 1   
    21    20    19 ar  
    22    20    21 ar  
    23    19    24 ar  
    24    21    22 ar  
    25    24    23 ar  
    26    22    23 ar  
    27    22    28 1   
    28    23    25 1   
    29    25    27 1   
    30    25    26 1   
    31     1    29 1   
    32     2    30 1   
    33     3    31 1   
    34     6    32 1   
    35     9    33 1   
    36    11    34 1   
    37    12    35 1   
    38    14    36 1   
    39    15    37 1   
    40    16    38 1   
    41    20    39 1   
    42    21    40 1   
    43    24    41 1   
    44    28    42 1   
@<TRIPOS>SUBSTRUCTURE
     1 1SE         1 TEMP              0 ****  ****    0 ROOT
