@<TRIPOS>MOLECULE
1SF
   26    27     1     0     0
SMALL
bcc


@<TRIPOS>ATOM
      1 C1          -0.0870     0.0400    -0.0070 ca         1 1SF      -0.130000
      2 C2           1.3040     0.0460    -0.0600 ca         1 1SF      -0.103000
      3 C3           2.0630     0.0130     1.1310 ca         1 1SF       0.050600
      4 C4           1.3950    -0.0400     2.3710 ca         1 1SF      -0.070000
      5 C5          -0.0060    -0.0490     2.3940 ca         1 1SF      -0.161200
      6 C6          -0.7590    -0.0090     1.2110 ca         1 1SF      -0.074000
      7 N7          -0.7110    -0.0950     3.7050 no         1 1SF       0.313200
      8 O8          -0.0690    -0.0150     4.7160 o          1 1SF      -0.202500
      9 O9          -1.9090    -0.2020     3.7130 o          1 1SF      -0.202500
     10 N10          3.4790     0.0230     1.0530 n          1 1SF      -0.391000
     11 C11          4.1120     1.1610     0.4180 c3         1 1SF       0.096000
     12 C12          5.5280     0.8660    -0.0660 c3         1 1SF      -0.168400
     13 C13          6.3400     0.0900     0.9430 c          1 1SF       0.706500
     14 O14          7.5800     0.1090     0.9640 o          1 1SF      -0.595500
     15 N15          5.6480    -0.6930     1.8670 ns         1 1SF      -0.594500
     16 C16          4.2420    -0.7940     1.9170 c          1 1SF       0.816500
     17 O17          3.7240    -1.6220     2.6940 o          1 1SF      -0.624500
     18 H1          -0.6650     0.0650    -0.9440 ha         1 1SF       0.152000
     19 H2           1.8050     0.0690    -1.0410 ha         1 1SF       0.148000
     20 H3           1.9650    -0.1050     3.3180 ha         1 1SF       0.193000
     21 H4          -1.8620    -0.0220     1.2470 ha         1 1SF       0.175000
     22 H5           3.4840     1.4760    -0.4630 h1         1 1SF       0.059700
     23 H6           4.1460     2.0270     1.1430 h1         1 1SF       0.059700
     24 H7           6.0520     1.8350    -0.2800 hc         1 1SF       0.095700
     25 H8           5.5080     0.2660    -1.0150 hc         1 1SF       0.095700
     26 H9           6.1570    -1.2700     2.5040 hn         1 1SF       0.356500
@<TRIPOS>BOND
     1     1     2 ar  
     2     1     6 ar  
     3     1    18 1   
     4     2     3 ar  
     5     2    19 1   
     6     3     4 ar  
     7     3    10 1   
     8     4     5 ar  
     9     4    20 1   
    10     5     6 ar  
    11     5     7 1   
    12     6    21 1   
    13     7     8 1   
    14     7     9 1   
    15    10    11 1   
    16    10    16 1   
    17    11    12 1   
    18    11    22 1   
    19    11    23 1   
    20    12    13 1   
    21    12    24 1   
    22    12    25 1   
    23    13    14 2   
    24    13    15 1   
    25    15    16 1   
    26    15    26 1   
    27    16    17 2   
@<TRIPOS>SUBSTRUCTURE
     1 1SF         1 TEMP              0 ****  ****    0 ROOT
