@<TRIPOS>MOLECULE
molecule
   26    27     1     0     0
SMALL
bcc


@<TRIPOS>ATOM
      1 C1           0.0000     0.0000     0.0000 ca         1 1SF      -0.126000
      2 C2           1.3810     0.0000     0.0000 ca         1 1SF      -0.075000
      3 C3           2.0740     0.0000     1.2030 ca         1 1SF       0.060600
      4 C4           1.3760     0.0010     2.4040 ca         1 1SF      -0.074000
      5 C5          -0.0060     0.0010     2.3980 ca         1 1SF      -0.149200
      6 C6          -0.6920     0.0070     1.1970 ca         1 1SF      -0.068000
      7 N7          -0.7500     0.0010     3.6750 no         1 1SF       0.295200
      8 O8          -0.1460     0.0010     4.7330 o          1 1SF      -0.202000
      9 O9          -1.9680     0.0010     3.6700 o          1 1SF      -0.202000
     10 N10          3.4740    -0.0010     1.2070 n          1 1SF      -0.418000
     11 C11          4.1940    -1.1770     1.6970 c3         1 1SF       0.099000
     12 C12          5.4650    -1.3810     0.8690 c3         1 1SF      -0.178400
     13 C13          6.1820    -0.0620     0.7280 c          1 1SF       0.689500
     14 O14          7.3930    -0.0310     0.6960 o          1 1SF      -0.594500
     15 N15          5.4760     1.0800     0.6390 ns         1 1SF      -0.575500
     16 C16          4.1380     1.0750     0.7550 c          1 1SF       0.819500
     17 O17          3.5120     2.0740     0.4540 o          1 1SF      -0.645500
     18 H1          -0.5410     0.0020    -0.9380 ha         1 1SF       0.154000
     19 H2           1.9230    -0.0030    -0.9380 ha         1 1SF       0.153000
     20 H3           1.9140    -0.0020     3.3450 ha         1 1SF       0.172000
     21 H4          -1.7760     0.0060     1.1950 ha         1 1SF       0.169000
     22 H5           4.5030    -0.9650     2.7130 h1         1 1SF       0.070200
     23 H6           3.5580    -2.0380     1.5260 h1         1 1SF       0.070200
     24 H7           5.1570    -1.6890    -0.1230 hc         1 1SF       0.095200
     25 H8           6.1130    -2.0430     1.4310 hc         1 1SF       0.095200
     26 H9           5.9550     1.9450     0.4830 hn         1 1SF       0.366500
@<TRIPOS>BOND
     1     8     7 1
     2     9     7 1
     3     7     5 1
     4     5     4 ar
     5     5     6 ar
     6    17    16 2
     7     4     3 ar
     8     6     1 ar
     9    16    15 1
    10    16    10 1
    11     3    10 1
    12     3     2 ar
    13    15    13 1
    14    10    11 1
    15     1     2 ar
    16    11    12 1
    17    13    14 2
    18    13    12 1
    19     1    18 1
    20     2    19 1
    21     4    20 1
    22     6    21 1
    23    11    22 1
    24    11    23 1
    25    12    24 1
    26    12    25 1
    27    15    26 1
@<TRIPOS>SUBSTRUCTURE
     1 1SF         1 TEMP              0 ****  ****    0 ROOT
