@<TRIPOS>MOLECULE
1SG
   53    56     1     0     0
SMALL
bcc


@<TRIPOS>ATOM
      1 C1          -0.2760     0.1270     0.0410 c3         1 1SG       0.111700
      2 O2           0.8960    -0.6640     0.2060 os         1 1SG      -0.319900
      3 C3           1.6770    -0.3770     1.3080 ca         1 1SG       0.122100
      4 C4           2.9110    -1.0540     1.3420 ca         1 1SG      -0.106000
      5 C5           3.7790    -0.8490     2.4160 ca         1 1SG      -0.002800
      6 C6           3.4110     0.0370     3.4450 ca         1 1SG      -0.118000
      7 C7           2.1780     0.6860     3.4070 ca         1 1SG      -0.111600
      8 C8           1.2990     0.4920     2.3370 ca         1 1SG      -0.182000
      9 C9           1.8470     1.6170     4.5310 c          1 1SG       0.677700
     10 O10          2.7130     2.3690     5.0170 o          1 1SG      -0.586100
     11 N11          0.5400     1.5660     4.9920 ns         1 1SG      -0.465100
     12 C12         -0.0170     2.3100     6.0470 ca         1 1SG       0.040600
     13 C13         -1.2840     1.9320     6.5490 ca         1 1SG      -0.143500
     14 C14         -1.8930     2.6390     7.5750 ca         1 1SG      -0.140500
     15 C15         -1.2610     3.7620     8.1480 ca         1 1SG       0.040600
     16 C16          0.0060     4.1400     7.6450 ca         1 1SG      -0.140500
     17 C17          0.6160     3.4320     6.6200 ca         1 1SG      -0.143500
     18 N18         -1.8120     4.5070     9.2050 ns         1 1SG      -0.445100
     19 C19         -3.1120     4.4450     9.6680 c          1 1SG       0.577600
     20 O20         -3.9610     3.6390     9.2370 o          1 1SG      -0.599100
     21 C21         -3.5020     5.3850    10.7880 ca         1 1SG       0.349800
     22 C22         -4.6380     5.0270    11.5440 ca         1 1SG      -0.186300
     23 C23         -5.0490     5.8730    12.5770 ca         1 1SG      -0.102000
     24 C24         -4.3280     7.0400    12.8220 ca         1 1SG      -0.223300
     25 C25         -3.2080     7.3170    12.0130 ca         1 1SG       0.393200
     26 N26         -2.7920     6.5180    11.0180 nb         1 1SG      -0.660000
     27 C27          5.0560    -1.5440     2.4910 cc         1 1SG      -0.210400
     28 C28          5.5720    -1.9440     3.6970 cd         1 1SG       0.061600
     29 N29          6.7820    -2.5880     3.8050 ns         1 1SG      -0.466100
     30 C30          7.5660    -2.8590     2.6590 c          1 1SG       0.802500
     31 O31          8.6680    -3.4330     2.7770 o          1 1SG      -0.630500
     32 N32          7.0590    -2.4660     1.4150 ns         1 1SG      -0.584500
     33 C33          5.8170    -1.8200     1.2550 c          1 1SG       0.724700
     34 O34          5.4620    -1.5370     0.1000 o          1 1SG      -0.601500
     35 H1          -0.6830    -0.2190    -0.9430 h1         1 1SG       0.047367
     36 H2          -0.0220     1.2140     0.0040 h1         1 1SG       0.047367
     37 H3          -1.0050    -0.0790     0.8620 h1         1 1SG       0.047367
     38 H4           3.1850    -1.7200     0.5070 ha         1 1SG       0.178000
     39 H5           4.1030     0.2500     4.2760 ha         1 1SG       0.149000
     40 H6           0.3430     1.0320     2.2910 ha         1 1SG       0.145000
     41 H7          -0.0560     0.8740     4.5940 hn         1 1SG       0.319500
     42 H8          -1.8130     1.0620     6.1290 ha         1 1SG       0.152000
     43 H9          -2.8840     2.3080     7.9310 ha         1 1SG       0.154500
     44 H10          0.5350     5.0110     8.0640 ha         1 1SG       0.154500
     45 H11          1.6060     3.7620     6.2610 ha         1 1SG       0.152000
     46 H12         -1.2240     5.2300     9.5620 hn         1 1SG       0.337500
     47 H13         -5.1840     4.1010    11.3040 ha         1 1SG       0.172000
     48 H14         -5.9310     5.6190    13.1830 ha         1 1SG       0.146000
     49 H15         -4.6180     7.7340    13.6230 ha         1 1SG       0.149000
     50 H16         -2.6090     8.2330    12.1690 h4         1 1SG       0.028100
     51 H17          5.0340    -1.7720     4.6500 h4         1 1SG       0.171000
     52 H18          7.1450    -2.8700     4.6870 hn         1 1SG       0.358500
     53 H19          7.6180    -2.6600     0.6110 hn         1 1SG       0.356500
@<TRIPOS>BOND
     1     1     2 1   
     2     1    35 1   
     3     1    36 1   
     4     1    37 1   
     5     2     3 1   
     6     3     4 ar  
     7     3     8 ar  
     8     4     5 ar  
     9     4    38 1   
    10     5     6 ar  
    11     5    27 1   
    12     6     7 ar  
    13     6    39 1   
    14     7     8 ar  
    15     7     9 1   
    16     8    40 1   
    17     9    10 2   
    18     9    11 1   
    19    11    12 1   
    20    11    41 1   
    21    12    13 ar  
    22    12    17 ar  
    23    13    14 ar  
    24    13    42 1   
    25    14    15 ar  
    26    14    43 1   
    27    15    16 ar  
    28    15    18 1   
    29    16    17 ar  
    30    16    44 1   
    31    17    45 1   
    32    18    19 1   
    33    18    46 1   
    34    19    20 2   
    35    19    21 1   
    36    21    22 ar  
    37    21    26 ar  
    38    22    23 ar  
    39    22    47 1   
    40    23    24 ar  
    41    23    48 1   
    42    24    25 ar  
    43    24    49 1   
    44    25    26 ar  
    45    25    50 1   
    46    27    28 2   
    47    27    33 1   
    48    28    29 1   
    49    28    51 1   
    50    29    30 1   
    51    29    52 1   
    52    30    31 2   
    53    30    32 1   
    54    32    33 1   
    55    32    53 1   
    56    33    34 2   
@<TRIPOS>SUBSTRUCTURE
     1 1SG         1 TEMP              0 ****  ****    0 ROOT
