@<TRIPOS>MOLECULE
molecule
   53    56     1     0     0
SMALL
bcc


@<TRIPOS>ATOM
      1 C1           0.0000     0.0000     0.0000 c3         1 1SG       0.127700
      2 O2           1.4290     0.0000     0.0000 os         1 1SG      -0.323900
      3 C3           2.0450     0.0000     1.2120 ca         1 1SG       0.135100
      4 C4           3.4300    -0.0000     1.2840 ca         1 1SG      -0.102000
      5 C5           4.0660    -0.0000     2.5230 ca         1 1SG      -0.000800
      6 C6           3.3110     0.0010     3.6920 ca         1 1SG      -0.092000
      7 C7           1.9190     0.0010     3.6180 ca         1 1SG      -0.112600
      8 C8           1.2890     0.0060     2.3720 ca         1 1SG      -0.197000
      9 C9           1.1110     0.0020     4.8560 c          1 1SG       0.676700
     10 O10          1.6610     0.0020     5.9400 o          1 1SG      -0.593100
     11 N11         -0.2350     0.0030     4.7830 ns         1 1SG      -0.473100
     12 C12         -0.9990    -0.0950     5.9520 ca         1 1SG       0.036600
     13 C13         -0.5570     0.5070     7.1230 ca         1 1SG      -0.128500
     14 C14         -1.3100     0.4110     8.2750 ca         1 1SG      -0.127500
     15 C15         -2.5120    -0.2870     8.2640 ca         1 1SG       0.037600
     16 C16         -2.9540    -0.8880     7.0920 ca         1 1SG      -0.127500
     17 C17         -2.2030    -0.7880     5.9390 ca         1 1SG      -0.128500
     18 N18         -3.2760    -0.3850     9.4330 ns         1 1SG      -0.457100
     19 C19         -3.3170     0.6470    10.2990 c          1 1SG       0.577600
     20 O20         -2.6260     1.6280    10.1080 o          1 1SG      -0.597100
     21 C21         -4.2040     0.5850    11.4840 ca         1 1SG       0.367800
     22 C22         -4.2470     1.6560    12.3720 ca         1 1SG      -0.186300
     23 C23         -5.0860     1.5860    13.4720 ca         1 1SG      -0.103000
     24 C24         -5.8540     0.4460    13.6460 ca         1 1SG      -0.232300
     25 C25         -5.7620    -0.5830    12.7210 ca         1 1SG       0.414200
     26 N26         -4.9580    -0.4900    11.6860 nb         1 1SG      -0.688000
     27 C27          5.5470    -0.0010     2.5970 cc         1 1SG      -0.221400
     28 C28          6.2210     1.0580     3.1300 cd         1 1SG       0.039600
     29 N29          7.5860     1.0280     3.1850 ns         1 1SG      -0.451100
     30 C30          8.2800    -0.0240     2.7230 c          1 1SG       0.806500
     31 O31          9.4940    -0.0060     2.7920 o          1 1SG      -0.650500
     32 N32          7.6710    -1.0960     2.1860 ns         1 1SG      -0.558500
     33 C33          6.3250    -1.1440     2.1030 c          1 1SG       0.707700
     34 O34          5.7670    -2.1130     1.6230 o          1 1SG      -0.599500
     35 H1          -0.3610    -0.8830     0.5140 h1         1 1SG       0.042033
     36 H2          -0.3610     0.8860     0.5070 h1         1 1SG       0.042033
     37 H3          -0.3610    -0.0040    -1.0210 h1         1 1SG       0.042033
     38 H4           4.0180    -0.0020     0.3740 ha         1 1SG       0.156000
     39 H5           3.8030    -0.0010     4.6570 ha         1 1SG       0.159000
     40 H6           0.2070     0.0060     2.3120 ha         1 1SG       0.131000
     41 H7          -0.6870     0.1190     3.8980 hn         1 1SG       0.322500
     42 H8           0.3800     1.0510     7.1320 ha         1 1SG       0.149500
     43 H9          -0.9650     0.8800     9.1880 ha         1 1SG       0.151500
     44 H10         -3.8920    -1.4300     7.0820 ha         1 1SG       0.151500
     45 H11         -2.5480    -1.2570     5.0260 ha         1 1SG       0.149500
     46 H12         -3.7640    -1.2330     9.6420 hn         1 1SG       0.344500
     47 H13         -3.6320     2.5330    12.2050 ha         1 1SG       0.166000
     48 H14         -5.1400     2.4040    14.1810 ha         1 1SG       0.145000
     49 H15         -6.5200     0.3600    14.4960 ha         1 1SG       0.142000
     50 H16         -6.3620    -1.4760    12.8530 h4         1 1SG       0.027100
     51 H17          5.6790     1.9160     3.5080 h4         1 1SG       0.172000
     52 H18          8.0780     1.8070     3.5760 hn         1 1SG       0.361500
     53 H19          8.2180    -1.8650     1.8530 hn         1 1SG       0.368500
@<TRIPOS>BOND
     1    24    23 ar
     2    24    25 ar
     3    23    22 ar
     4    25    26 ar
     5    22    21 ar
     6    21    26 ar
     7    21    19 1
     8    19    18 1
     9    19    20 2
    10    18    15 1
    11    16    15 ar
    12    16    17 ar
    13    15    14 ar
    14    17    12 ar
    15    10     9 2
    16    14    13 ar
    17    12    13 ar
    18    12    11 1
    19    29    28 1
    20    29    30 1
    21    31    30 2
    22     9    11 1
    23     9     7 1
    24    28    27 2
    25    30    32 1
    26     6     7 ar
    27     6     5 ar
    28     7     8 ar
    29    27     5 1
    30    27    33 1
    31    32    33 1
    32     5     4 ar
    33    33    34 2
    34     8     3 ar
    35     4     3 ar
    36     3     2 1
    37     2     1 1
    38     1    35 1
    39     1    36 1
    40     1    37 1
    41     4    38 1
    42     6    39 1
    43     8    40 1
    44    11    41 1
    45    13    42 1
    46    14    43 1
    47    16    44 1
    48    17    45 1
    49    18    46 1
    50    22    47 1
    51    23    48 1
    52    24    49 1
    53    25    50 1
    54    28    51 1
    55    29    52 1
    56    32    53 1
@<TRIPOS>SUBSTRUCTURE
     1 1SG         1 TEMP              0 ****  ****    0 ROOT
