@<TRIPOS>MOLECULE
1SG
   53    56     1     0     0
SMALL
bcc


@<TRIPOS>ATOM
      1 C1           0.0000     0.0000     0.0000 c3         1 1SG       0.244700
      2 O2           1.4290     0.0000     0.0000 os         1 1SG      -0.303900
      3 C3           2.0450     0.0000     1.2120 ca         1 1SG       0.148100
      4 C4           3.4300    -0.0000     1.2840 ca         1 1SG      -0.089000
      5 C5           4.0660    -0.0000     2.5230 ca         1 1SG       0.012200
      6 C6           3.3110     0.0010     3.6920 ca         1 1SG      -0.069000
      7 C7           1.9190     0.0010     3.6180 ca         1 1SG      -0.117600
      8 C8           1.2890     0.0060     2.3720 ca         1 1SG      -0.197000
      9 C9           1.1110     0.0020     4.8560 c          1 1SG       0.585700
     10 O10          1.6610     0.0020     5.9400 o          1 1SG      -0.637100
     11 N11         -0.2350     0.0030     4.7830 ns         1 1SG      -0.032100
     12 C12         -0.9990    -0.0950     5.9520 ca         1 1SG      -0.107400
     13 C13         -0.5570     0.5070     7.1230 ca         1 1SG      -0.100500
     14 C14         -1.3100     0.4110     8.2750 ca         1 1SG      -0.099000
     15 C15         -2.5120    -0.2870     8.2640 ca         1 1SG      -0.107400
     16 C16         -2.9540    -0.8880     7.0920 ca         1 1SG      -0.099000
     17 C17         -2.2030    -0.7880     5.9390 ca         1 1SG      -0.100500
     18 N18         -3.2760    -0.3850     9.4330 ns         1 1SG      -0.008100
     19 C19         -3.3170     0.6470    10.2990 c          1 1SG       0.474600
     20 O20         -2.6260     1.6280    10.1080 o          1 1SG      -0.643100
     21 C21         -4.2040     0.5850    11.4840 ca         1 1SG       0.309800
     22 C22         -4.2470     1.6560    12.3720 ca         1 1SG      -0.147300
     23 C23         -5.0860     1.5860    13.4720 ca         1 1SG      -0.080000
     24 C24         -5.8540     0.4460    13.6460 ca         1 1SG      -0.198300
     25 C25         -5.7620    -0.5830    12.7210 ca         1 1SG       0.395200
     26 N26         -4.9580    -0.4900    11.6860 nb         1 1SG      -0.574000
     27 C27          5.5470    -0.0010     2.5970 cc         1 1SG      -0.213400
     28 C28          6.2210     1.0580     3.1300 cd         1 1SG      -0.102400
     29 N29          7.5860     1.0280     3.1850 ns         1 1SG       0.022900
     30 C30          8.2800    -0.0240     2.7230 c          1 1SG       0.571500
     31 O31          9.4940    -0.0060     2.7920 o          1 1SG      -0.701500
     32 N32          7.6710    -1.0960     2.1860 ns         1 1SG      -0.124500
     33 C33          6.3250    -1.1440     2.1030 c          1 1SG       0.620700
     34 O34          5.7670    -2.1130     1.6230 o          1 1SG      -0.641500
     35 H1          -0.3610    -0.8830     0.5140 h1         1 1SG      -0.002967
     36 H2          -0.3610     0.8860     0.5070 h1         1 1SG      -0.002967
     37 H3          -0.3610    -0.0040    -1.0210 h1         1 1SG      -0.002967
     38 H4           4.0180    -0.0020     0.3740 ha         1 1SG       0.124000
     39 H5           3.8030    -0.0010     4.6570 ha         1 1SG       0.131000
     40 H6           0.2070     0.0060     2.3120 ha         1 1SG       0.119000
     41 H7          -0.6870     0.1190     3.8980 hn         1 1SG       0.169500
     42 H8           0.3800     1.0510     7.1320 ha         1 1SG       0.125000
     43 H9          -0.9650     0.8800     9.1880 ha         1 1SG       0.126500
     44 H10         -3.8920    -1.4300     7.0820 ha         1 1SG       0.126500
     45 H11         -2.5480    -1.2570     5.0260 ha         1 1SG       0.125000
     46 H12         -3.7640    -1.2330     9.6420 hn         1 1SG       0.184500
     47 H13         -3.6320     2.5330    12.2050 ha         1 1SG       0.138000
     48 H14         -5.1400     2.4040    14.1810 ha         1 1SG       0.113000
     49 H15         -6.5200     0.3600    14.4960 ha         1 1SG       0.114000
     50 H16         -6.3620    -1.4760    12.8530 h4         1 1SG      -0.017900
     51 H17          5.6790     1.9160     3.5080 h4         1 1SG       0.139000
     52 H18          8.0780     1.8070     3.5760 hn         1 1SG       0.191500
     53 H19          8.2180    -1.8650     1.8530 hn         1 1SG       0.209500
@<TRIPOS>BOND
     1     1     2 1   
     2     1    35 1   
     3     1    36 1   
     4     1    37 1   
     5     2     3 1   
     6     3     4 ar  
     7     3     8 ar  
     8     4     5 ar  
     9     4    38 1   
    10     5     6 ar  
    11     5    27 1   
    12     6     7 ar  
    13     6    39 1   
    14     7     8 ar  
    15     7     9 1   
    16     8    40 1   
    17     9    10 2   
    18     9    11 1   
    19    11    12 1   
    20    11    41 1   
    21    12    13 ar  
    22    12    17 ar  
    23    13    14 ar  
    24    13    42 1   
    25    14    15 ar  
    26    14    43 1   
    27    15    16 ar  
    28    15    18 1   
    29    16    17 ar  
    30    16    44 1   
    31    17    45 1   
    32    18    19 1   
    33    18    46 1   
    34    19    20 2   
    35    19    21 1   
    36    21    22 ar  
    37    21    26 ar  
    38    22    23 ar  
    39    22    47 1   
    40    23    24 ar  
    41    23    48 1   
    42    24    25 ar  
    43    24    49 1   
    44    25    26 ar  
    45    25    50 1   
    46    27    28 2   
    47    27    33 1   
    48    28    29 1   
    49    28    51 1   
    50    29    30 1   
    51    29    52 1   
    52    30    31 2   
    53    30    32 1   
    54    32    33 1   
    55    32    53 1   
    56    33    34 2   
@<TRIPOS>SUBSTRUCTURE
     1 1SG         1 TEMP              0 ****  ****    0 ROOT
