@<TRIPOS>MOLECULE
molecule
   17    16     1     0     0
SMALL
bcc


@<TRIPOS>ATOM
      1 O4           0.0000     0.0000     0.0000 o          1 1SH      -0.914500
      2 P1           1.6100     0.0000     0.0000 p5         1 1SH       1.185900
      3 O1           2.1040     0.0000     1.3950 o          1 1SH      -0.914500
      4 O3           2.1470    -1.3130    -0.7600 o          1 1SH      -0.914500
      5 O2           2.1460     1.3160    -0.7590 os         1 1SH      -0.565200
      6 C1           1.9270     2.6400    -0.2680 c3         1 1SH       0.225400
      7 C2           2.5650     3.6500    -1.2240 c3         1 1SH       0.144800
      8 N1           1.8780     3.5970    -2.5220 n7         1 1SH      -0.773200
      9 C3           2.4650     4.5560    -3.4690 c3         1 1SH       0.146100
     10 H3           0.8630     2.8290    -0.2010 h1         1 1SH       0.007700
     11 H4           2.3750     2.7400     0.7140 h1         1 1SH       0.007700
     12 H5           3.6120     3.4070    -1.3600 h1         1 1SH       0.002700
     13 H6           2.4770     4.6460    -0.8090 h1         1 1SH       0.002700
     14 H7           0.9070     3.8070    -2.3940 hn         1 1SH       0.345800
     15 H9           1.9420     4.4940    -4.4150 h1         1 1SH       0.004033
     16 H10          2.3730     5.5590    -3.0700 h1         1 1SH       0.004033
     17 H11          3.5110     4.3200    -3.6180 h1         1 1SH       0.004033
@<TRIPOS>BOND
     1     9     8 1   
     2     3     2 1   
     3     8     7 1   
     4     5     2 1   
     5     5     6 1   
     6     2     1 1   
     7     2     4 1   
     8     7     6 1   
     9     6    10 1   
    10     6    11 1   
    11     7    12 1   
    12     7    13 1   
    13     8    14 1   
    14     9    15 1   
    15     9    16 1   
    16     9    17 1   
@<TRIPOS>SUBSTRUCTURE
     1 1SH         1 TEMP              0 ****  ****    0 ROOT
