@<TRIPOS>MOLECULE
1SJ
   49    49     1     0     0
SMALL
bcc


@<TRIPOS>ATOM
      1 CAA          0.0000     0.0000     0.0000 c3         1 1SJ      -0.002600
      2 CAJ          1.5300     0.0000     0.0000 c3         1 1SJ      -0.045900
      3 CAT          2.0400     0.0000     1.4430 c3         1 1SJ       0.170100
      4 CAK          3.5650    -0.1250     1.4450 c3         1 1SJ      -0.045900
      5 CAB          4.0640    -0.2710     2.8830 c3         1 1SJ      -0.002600
      6 OAO          1.6610     1.2210     2.0810 os         1 1SJ      -0.399600
      7 CAV          1.3130     1.0700     3.4600 c3         1 1SJ       0.148100
      8 CAL         -0.1440     0.6220     3.5760 c3         1 1SJ      -0.012200
      9 CAS         -0.5990     0.7060     5.0040 ce         1 1SJ      -0.040400
     10 CAR         -1.8120    -0.0280     5.3890 c          1 1SJ       0.947800
     11 OAH         -2.4830    -0.7520     4.4700 o          1 1SJ      -0.857300
     12 OAG         -2.2110     0.0180     6.5370 o          1 1SJ      -0.857300
     13 CAI          0.0260     1.4010     5.9310 c2         1 1SJ      -0.325200
     14 CAU          1.2780     2.1900     5.6800 c3         1 1SJ       0.192700
     15 NAM          1.1820     3.4850     6.3590 nu         1 1SJ      -0.458200
     16 CAQ          1.5330     3.5940     7.6830 c2         1 1SJ       0.247100
     17 NAE          1.9540     2.5470     8.3350 n2         1 1SJ      -0.676100
     18 NAD          1.4420     4.8090     8.3210 nz         1 1SJ       0.196400
     19 CAW          1.4660     2.4180     4.1790 c3         1 1SJ      -0.002300
     20 NAN          2.8030     2.9600     3.9260 ns         1 1SJ      -0.186900
     21 CAP          2.9630     4.2800     3.7050 c          1 1SJ       0.573100
     22 OAF          2.0010     5.0180     3.7160 o          1 1SJ      -0.679100
     23 CAC          4.3380     4.8400     3.4460 c3         1 1SJ      -0.068100
     24 H1          -0.3610     0.9720     0.3140 hc         1 1SJ       0.006200
     25 H2          -0.3610    -0.2140    -0.9990 hc         1 1SJ       0.006200
     26 H3          -0.3610    -0.7580     0.6850 hc         1 1SJ       0.006200
     27 H4           1.8910     0.8850    -0.5110 hc         1 1SJ       0.020450
     28 H5           1.8910    -0.8840    -0.5110 hc         1 1SJ       0.020450
     29 H6           1.6080    -0.8370     1.9780 h1         1 1SJ       0.029700
     30 H7           4.0010     0.7610     1.0000 hc         1 1SJ       0.020450
     31 H8           3.8570    -0.9970     0.8720 hc         1 1SJ       0.020450
     32 H9           3.2720    -0.6790     3.5000 hc         1 1SJ       0.006200
     33 H10          4.3540     0.7010     3.2650 hc         1 1SJ       0.006200
     34 H11          4.9170    -0.9370     2.9040 hc         1 1SJ       0.006200
     35 H12          1.9580     0.3350     3.9260 h1         1 1SJ       0.025700
     36 H13         -0.7660     1.2640     2.9640 hc         1 1SJ       0.060200
     37 H14         -0.2310    -0.4030     3.2340 hc         1 1SJ       0.060200
     38 H17         -0.3880     1.4050     6.9320 ha         1 1SJ       0.145000
     39 H19          2.1280     1.6410     6.0660 h1         1 1SJ       0.028700
     40 H20          0.7960     4.2740     5.8810 hn         1 1SJ       0.318800
     41 H21          2.0210     1.6620     7.8720 hn         1 1SJ       0.399400
     42 H22          1.5570     4.6770     9.3060 hn         1 1SJ       0.216800
     43 H23          0.5440     5.2130     8.1390 hn         1 1SJ       0.216800
     44 H24          0.7130     3.1080     3.8190 h1         1 1SJ       0.089700
     45 H25          3.6020     2.3570     3.9510 hn         1 1SJ       0.185500
     46 H26          5.0470     4.3880     4.1300 hc         1 1SJ       0.024033
     47 H27          4.6310     4.6210     2.4260 hc         1 1SJ       0.024033
     48 H28          4.3260     5.9130     3.5950 hc         1 1SJ       0.024033
     49 HAD3         2.1560     5.4200     7.9770 hn         1 1SJ       0.216800
@<TRIPOS>BOND
     1     1     2 1   
     2     1    24 1   
     3     1    25 1   
     4     1    26 1   
     5     2     3 1   
     6     2    27 1   
     7     2    28 1   
     8     3     4 1   
     9     3     6 1   
    10     3    29 1   
    11     4     5 1   
    12     4    30 1   
    13     4    31 1   
    14     5    32 1   
    15     5    33 1   
    16     5    34 1   
    17     6     7 1   
    18     7     8 1   
    19     7    19 1   
    20     7    35 1   
    21     8     9 1   
    22     8    36 1   
    23     8    37 1   
    24     9    10 1   
    25     9    13 2   
    26    10    11 1   
    27    10    12 1   
    28    13    14 1   
    29    13    38 1   
    30    14    15 1   
    31    14    19 1   
    32    14    39 1   
    33    15    16 1   
    34    15    40 1   
    35    16    17 2   
    36    16    18 1   
    37    17    41 1   
    38    18    42 1   
    39    18    43 1   
    40    18    49 1   
    41    19    20 1   
    42    19    44 1   
    43    20    21 1   
    44    20    45 1   
    45    21    22 2   
    46    21    23 1   
    47    23    46 1   
    48    23    47 1   
    49    23    48 1   
@<TRIPOS>SUBSTRUCTURE
     1 1SJ         1 TEMP              0 ****  ****    0 ROOT
