@<TRIPOS>MOLECULE
molecule
   49    49     1     0     0
SMALL
bcc


@<TRIPOS>ATOM
      1 CAA          0.0000     0.0000     0.0000 c3         1 1SJ      -0.094100
      2 CAJ          1.5300     0.0000     0.0000 c3         1 1SJ      -0.095900
      3 CAT          2.0400     0.0000     1.4430 c3         1 1SJ       0.142100
      4 CAK          3.5650    -0.1250     1.4450 c3         1 1SJ      -0.095900
      5 CAB          4.0640    -0.2710     2.8830 c3         1 1SJ      -0.094100
      6 OAO          1.6610     1.2210     2.0810 os         1 1SJ      -0.417600
      7 CAV          1.3130     1.0700     3.4600 c3         1 1SJ       0.126100
      8 CAL         -0.1440     0.6220     3.5760 c3         1 1SJ      -0.065200
      9 CAS         -0.5990     0.7060     5.0040 ce         1 1SJ      -0.076400
     10 CAR         -1.8120    -0.0280     5.3890 c          1 1SJ       0.866800
     11 OAH         -2.4830    -0.7520     4.4700 o          1 1SJ      -0.815800
     12 OAG         -2.2110     0.0180     6.5370 o          1 1SJ      -0.815800
     13 CAI          0.0260     1.4010     5.9310 c2         1 1SJ      -0.277200
     14 CAU          1.2780     2.1900     5.6800 c3         1 1SJ       0.280700
     15 NAM          1.1820     3.4850     6.3590 nu         1 1SJ      -0.820200
     16 CAQ          1.5330     3.5940     7.6830 c2         1 1SJ       0.687100
     17 NAE          1.9540     2.5470     8.3350 n2         1 1SJ      -0.796100
     18 NAD          1.4420     4.8090     8.3210 nz         1 1SJ      -0.807600
     19 CAW          1.4660     2.4180     4.1790 c3         1 1SJ       0.099700
     20 NAN          2.8030     2.9600     3.9260 ns         1 1SJ      -0.569900
     21 CAP          2.9630     4.2800     3.7050 c          1 1SJ       0.659100
     22 OAF          2.0010     5.0180     3.7160 o          1 1SJ      -0.646100
     23 CAC          4.3380     4.8400     3.4460 c3         1 1SJ      -0.174100
     24 H1          -0.3610     0.9590     0.3500 hc         1 1SJ       0.036533
     25 H2          -0.3610    -0.7830     0.6550 hc         1 1SJ       0.036533
     26 H3          -0.3610    -0.1760    -1.0060 hc         1 1SJ       0.036533
     27 H4           1.8910     0.8850    -0.5110 hc         1 1SJ       0.047700
     28 H5           1.8910    -0.8840    -0.5110 hc         1 1SJ       0.047700
     29 H6           1.6080    -0.8370     1.9780 h1         1 1SJ       0.053700
     30 H7           3.8570    -0.9970     0.8720 hc         1 1SJ       0.047700
     31 H8           4.0010     0.7610     0.9990 hc         1 1SJ       0.047700
     32 H9           3.2520    -0.6120     3.5140 hc         1 1SJ       0.036533
     33 H10          4.8720    -0.9910     2.9140 hc         1 1SJ       0.036533
     34 H11          4.4200     0.6880     3.2410 hc         1 1SJ       0.036533
     35 H12          1.9580     0.3350     3.9260 h1         1 1SJ       0.046700
     36 H13         -0.7660     1.2640     2.9640 hc         1 1SJ       0.087700
     37 H14         -0.2310    -0.4030     3.2340 hc         1 1SJ       0.087700
     38 H17         -0.3890     1.4050     6.9320 ha         1 1SJ       0.161000
     39 H19          2.1280     1.6410     6.0670 h1         1 1SJ       0.081700
     40 H20          0.7950     4.2740     5.8810 hn         1 1SJ       0.462800
     41 H21          2.2090     2.6270     9.3000 hn         1 1SJ       0.419400
     42 H22          0.9440     4.6970     9.1820 hn         1 1SJ       0.459133
     43 H23          2.3610     5.1560     8.5100 hn         1 1SJ       0.459133
     44 H24          0.7130     3.1080     3.8190 h1         1 1SJ       0.107700
     45 H25          3.6020     2.3580     3.9580 hn         1 1SJ       0.321500
     46 H26          5.0300     4.4560     4.1860 hc         1 1SJ       0.061033
     47 H27          4.3060     5.9210     3.5090 hc         1 1SJ       0.061033
     48 H28          4.6680     4.5450     2.4570 hc         1 1SJ       0.061033
     49 HAD3         0.9520     5.4560     7.7350 hn         1 1SJ       0.459133
@<TRIPOS>BOND
     1    22    21 2
     2    17    16 2
     3     2     3 1
     4     2     1 1
     5     3     4 1
     6     3     6 1
     7     4     5 1
     8    20    21 1
     9    20    19 1
    10    21    23 1
    11    16    18 1
    12    16    15 1
    13     7     6 1
    14     7    19 1
    15     7     8 1
    16    19    14 1
    17    14    15 1
    18    14    13 1
    19     8     9 1
    20    13     9 2
    21     9    10 1
    22    12    10 1
    23    10    11 1
    24     1    24 1
    25     1    25 1
    26     1    26 1
    27     2    27 1
    28     2    28 1
    29     3    29 1
    30     4    30 1
    31     4    31 1
    32     5    32 1
    33     5    33 1
    34     5    34 1
    35     7    35 1
    36     8    36 1
    37     8    37 1
    38    13    38 1
    39    14    39 1
    40    15    40 1
    41    17    41 1
    42    18    42 1
    43    18    43 1
    44    19    44 1
    45    20    45 1
    46    23    46 1
    47    23    47 1
    48    23    48 1
    49    49    18 1
@<TRIPOS>SUBSTRUCTURE
     1 1SJ         1 TEMP              0 ****  ****    0 ROOT
