@<TRIPOS>MOLECULE
molecule
   51    51     1     0     0
SMALL
bcc


@<TRIPOS>ATOM
      1 CAA          0.0000     0.0000     0.0000 c3         1 1SJ      -0.091600
      2 CAJ          1.5580     0.0000     0.0000 c3         1 1SJ      -0.098400
      3 CAT          2.0910     0.0000     1.4570 c3         1 1SJ       0.142100
      4 CAK          1.5570     1.2610     2.2000 c3         1 1SJ      -0.098400
      5 CAB          1.6720     1.1110     3.7190 c3         1 1SJ      -0.091600
      6 OAO          1.7320    -1.1970     2.1920 os         1 1SJ      -0.463600
      7 CAV          2.4260    -2.3340     1.7700 c3         1 1SJ       0.137100
      8 CAL          1.3490    -3.3440     1.4500 c3         1 1SJ      -0.091200
      9 CAS          1.7950    -4.6810     1.3690 ce         1 1SJ      -0.038400
     10 CAR          0.9890    -5.4930     0.5300 c          1 1SJ       0.866800
     11 OAH          0.4200    -4.9580    -0.4330 o          1 1SJ      -0.456300
     12 OAG          0.8060    -6.7180     0.6840 o          1 1SJ      -0.456300
     13 CAI          2.9900    -5.1070     2.0200 c2         1 1SJ      -0.060200
     14 CAU          3.9700    -4.2140     2.5030 c3         1 1SJ      -0.021300
     15 NAM          4.7970    -4.6650     3.6620 ny         1 1SJ      -1.048000
     16 CAQ          6.0880    -4.3250     3.9130 c2         1 1SJ       0.716100
     17 NAE          6.7290    -4.7760     4.9940 n2         1 1SJ      -0.692100
     18 NAD          6.7680    -3.5330     3.1010 nz         1 1SJ      -0.886600
     19 CAW          3.3510    -2.8530     2.8860 c3         1 1SJ       0.162500
     20 NAN          4.4490    -1.9030     3.1150 ny         1 1SJ      -0.684800
     21 CAP          4.7840    -1.3870     4.3080 c          1 1SJ       0.555100
     22 OAF          5.7000    -0.6060     4.5240 o          1 1SJ      -0.403100
     23 CAC          3.9420    -1.8310     5.4480 c3         1 1SJ      -0.186100
     24 H1          -0.3610    -0.3970     0.9410 hc         1 1SJ       0.037867
     25 H2          -0.3610    -0.6160    -0.8150 hc         1 1SJ       0.037867
     26 H3          -0.3610     1.0140    -0.1260 hc         1 1SJ       0.037867
     27 H4           1.9170    -0.8840    -0.5140 hc         1 1SJ       0.064200
     28 H5           1.9170     0.8840    -0.5140 hc         1 1SJ       0.064200
     29 H6           3.1720     0.0620     1.4210 h1         1 1SJ       0.058700
     30 H7           2.1290     2.1250     1.8850 hc         1 1SJ       0.064200
     31 H8           0.5160     1.4100     1.9380 hc         1 1SJ       0.064200
     32 H9           1.0940     0.2540     4.0430 hc         1 1SJ       0.037867
     33 H10          2.7110     0.9690     3.9910 hc         1 1SJ       0.037867
     34 H11          1.2930     2.0050     4.2000 hc         1 1SJ       0.037867
     35 H12          3.0040    -2.1140     0.8800 h1         1 1SJ       0.076700
     36 H13          0.5880    -3.2850     2.2190 hc         1 1SJ       0.098700
     37 H14          0.9040    -3.0760     0.4990 hc         1 1SJ       0.098700
     38 H17          3.1540    -6.1700     2.1490 ha         1 1SJ       0.181000
     39 H19          4.6500    -4.0290     1.6810 hx         1 1SJ       0.130700
     40 H20          4.7940    -5.6640     3.6130 hn         1 1SJ       0.445300
     41 H21          7.6800    -4.5130     5.1600 hn         1 1SJ       0.471400
     42 H22          6.8360    -2.6190     3.5040 hn         1 1SJ       0.463133
     43 H23          7.6870    -3.9050     2.9650 hn         1 1SJ       0.463133
     44 H24          2.7770    -2.9680     3.7970 hx         1 1SJ       0.119700
     45 H25          4.2530    -1.1180     2.5270 hn         1 1SJ       0.469800
     46 H26          4.1970    -1.2570     6.3300 hc         1 1SJ       0.116033
     47 H27          4.1180    -2.8830     5.6380 hc         1 1SJ       0.116033
     48 H28          2.8970    -1.6770     5.2060 hc         1 1SJ       0.116033
     49 HAD3         6.3070    -3.4880     2.2140 hn         1 1SJ       0.463133
     50 HAM2         4.2970    -4.3650     4.4750 hn         1 1SJ       0.445300
     51 HAN2         5.2800    -2.3760     2.8170 hn         1 1SJ       0.469800
@<TRIPOS>BOND
     1    22    21 2   
     2    17    16 2   
     3     2     3 1   
     4     2     1 1   
     5     3     4 1   
     6     3     6 1   
     7     4     5 1   
     8    20    21 1   
     9    20    19 1   
    10    21    23 1   
    11    16    18 1   
    12    16    15 1   
    13     7     6 1   
    14     7    19 1   
    15     7     8 1   
    16    19    14 1   
    17    14    15 1   
    18    14    13 1   
    19     8     9 1   
    20    13     9 2   
    21     9    10 1   
    22    12    10 1   
    23    10    11 1   
    24     1    24 1   
    25     1    25 1   
    26     1    26 1   
    27     2    27 1   
    28     2    28 1   
    29     3    29 1   
    30     4    30 1   
    31     4    31 1   
    32     5    32 1   
    33     5    33 1   
    34     5    34 1   
    35     7    35 1   
    36     8    36 1   
    37     8    37 1   
    38    13    38 1   
    39    14    39 1   
    40    15    40 1   
    41    17    41 1   
    42    18    42 1   
    43    18    43 1   
    44    19    44 1   
    45    20    45 1   
    46    23    46 1   
    47    23    47 1   
    48    23    48 1   
    49    49    18 1   
    50    50    15 1   
    51    51    20 1   
@<TRIPOS>SUBSTRUCTURE
     1 1SJ         1 TEMP              0 ****  ****    0 ROOT
