@<TRIPOS>MOLECULE
1SL
   57    58     1     0     0
SMALL
bcc


@<TRIPOS>ATOM
      1 CAA          0.0000     0.0000     0.0000 c3         1 1SL      -0.004100
      2 CAK          1.5300     0.0000     0.0000 c3         1 1SL      -0.045400
      3 CAX          2.0400     0.0000     1.4430 c3         1 1SL       0.169100
      4 CAL          3.5650    -0.1270     1.4440 c3         1 1SL      -0.045400
      5 CAB          4.0620    -0.2740     2.8840 c3         1 1SL      -0.004100
      6 OAS          1.6620     1.2210     2.0810 os         1 1SL      -0.396600
      7 CAZ          1.3170     1.0730     3.4600 c3         1 1SL       0.145100
      8 CBA          1.4740     2.4190     4.1790 c3         1 1SL      -0.008300
      9 NAR          2.8090     2.9630     3.9180 ns         1 1SL      -0.187900
     10 CAT          2.9650     4.2810     3.6790 c          1 1SL       0.581100
     11 CAC          4.3390     4.8400     3.4110 c3         1 1SL      -0.066100
     12 OAD          2.0010     5.0150     3.6780 o          1 1SL      -0.653100
     13 CAO         -0.1400     0.6250     3.5810 c3         1 1SL      -0.004200
     14 CAV         -0.5920     0.7120     5.0100 ce         1 1SL      -0.091400
     15 CAU         -1.8040    -0.0210     5.3990 c          1 1SL       0.959800
     16 OAG         -2.4770    -0.7460     4.4820 o          1 1SL      -0.874300
     17 OAE         -2.2010     0.0260     6.5460 o          1 1SL      -0.874300
     18 CAH          0.0370     1.4070     5.9340 c2         1 1SL      -0.265200
     19 CAY          1.2890     2.1940     5.6800 c3         1 1SL      -0.010800
     20 NBB          1.1960     3.4890     6.3580 na         1 1SL       0.624400
     21 CAI          0.0710     4.2270     6.5060 cc         1 1SL      -0.401600
     22 NAQ          2.1680     4.1190     6.9190 nc         1 1SL      -0.412800
     23 NAP          1.7480     5.2270     7.4210 nd         1 1SL      -0.331000
     24 CAW          0.4350     5.3380     7.1860 cd         1 1SL       0.245600
     25 CAN         -0.4610     6.4770     7.6010 c3         1 1SL      -0.011700
     26 CAM         -0.3440     6.6930     9.1110 c3         1 1SL      -0.042400
     27 CAJ         -1.2550     7.8490     9.5310 c3         1 1SL       0.222400
     28 OAF         -1.1460     8.0520    10.9420 oh         1 1SL      -0.594800
     29 H1          -0.3610    -0.7850     0.6540 hc         1 1SL       0.007200
     30 H2          -0.3610     0.9590     0.3520 hc         1 1SL       0.007200
     31 H3          -0.3610    -0.1740    -1.0060 hc         1 1SL       0.007200
     32 H4           1.8910    -0.8840    -0.5110 hc         1 1SL       0.014450
     33 H5           1.8910     0.8840    -0.5110 hc         1 1SL       0.014450
     34 H6           1.6080    -0.8360     1.9790 h1         1 1SL       0.027700
     35 H7           3.8550    -0.9990     0.8710 hc         1 1SL       0.014450
     36 H8           4.0020     0.7590     1.0000 hc         1 1SL       0.014450
     37 H9           4.0650     0.6960     3.3660 hc         1 1SL       0.007200
     38 H10          5.0670    -0.6780     2.8790 hc         1 1SL       0.007200
     39 H11          3.4060    -0.9440     3.4260 hc         1 1SL       0.007200
     40 H12          1.9620     0.3370     3.9250 h1         1 1SL       0.020700
     41 H13          0.7190     3.1090     3.8210 h1         1 1SL       0.089700
     42 H14          3.6110     2.3660     3.9670 hn         1 1SL       0.177500
     43 H15          4.6180     4.6360     2.3850 hc         1 1SL       0.018700
     44 H16          4.3320     5.9100     3.5780 hc         1 1SL       0.018700
     45 H17          5.0540     4.3750     4.0790 hc         1 1SL       0.018700
     46 H18         -0.2280    -0.4000     3.2400 hc         1 1SL       0.049200
     47 H19         -0.7630     1.2670     2.9690 hc         1 1SL       0.049200
     48 H22         -0.3000     1.2880     6.9570 ha         1 1SL       0.153000
     49 H24          2.1390     1.6440     6.0650 h1         1 1SL       0.048700
     50 H25         -0.9210     3.9780     6.1490 h4         1 1SL       0.175000
     51 H26         -0.1610     7.3800     7.0830 hc         1 1SL       0.013700
     52 H27         -1.4870     6.2390     7.3480 hc         1 1SL       0.013700
     53 H28         -0.6440     5.7910     9.6300 hc         1 1SL       0.032700
     54 H29          0.6820     6.9310     9.3640 hc         1 1SL       0.032700
     55 H30         -0.9550     8.7520     9.0130 h1         1 1SL      -0.019800
     56 H31         -2.2810     7.6110     9.2780 h1         1 1SL      -0.019800
     57 H32         -1.7000     8.7700    11.2000 ho         1 1SL       0.379000
@<TRIPOS>BOND
     1     1     2 1   
     2     1    29 1   
     3     1    30 1   
     4     1    31 1   
     5     2     3 1   
     6     2    32 1   
     7     2    33 1   
     8     3     4 1   
     9     3     6 1   
    10     3    34 1   
    11     4     5 1   
    12     4    35 1   
    13     4    36 1   
    14     5    37 1   
    15     5    38 1   
    16     5    39 1   
    17     6     7 1   
    18     7     8 1   
    19     7    13 1   
    20     7    40 1   
    21     8     9 1   
    22     8    19 1   
    23     8    41 1   
    24     9    10 1   
    25     9    42 1   
    26    10    11 1   
    27    10    12 2   
    28    11    43 1   
    29    11    44 1   
    30    11    45 1   
    31    13    14 1   
    32    13    46 1   
    33    13    47 1   
    34    14    15 1   
    35    14    18 2   
    36    15    16 1   
    37    15    17 1   
    38    18    19 1   
    39    18    48 1   
    40    19    20 1   
    41    19    49 1   
    42    20    21 1   
    43    20    22 1   
    44    21    24 2   
    45    21    50 1   
    46    22    23 2   
    47    23    24 1   
    48    24    25 1   
    49    25    26 1   
    50    25    51 1   
    51    25    52 1   
    52    26    27 1   
    53    26    53 1   
    54    26    54 1   
    55    27    28 1   
    56    27    55 1   
    57    27    56 1   
    58    28    57 1   
@<TRIPOS>SUBSTRUCTURE
     1 1SL         1 TEMP              0 ****  ****    0 ROOT
