@<TRIPOS>MOLECULE
1SL
   58    59     1     0     0
SMALL
bcc


@<TRIPOS>ATOM
      1 CAA          0.6340    -0.9050    -0.2120 c3         1 1SL      -0.090100
      2 CAK          2.1160    -0.8830     0.0540 c3         1 1SL      -0.095400
      3 CAX          2.4290    -0.3330     1.4430 c3         1 1SL       0.143100
      4 CAL          3.8290    -0.7070     1.9170 c3         1 1SL      -0.095400
      5 CAB          4.9180    -0.2660     0.9740 c3         1 1SL      -0.090100
      6 OAS          2.3130     1.0980     1.3370 os         1 1SL      -0.472600
      7 CAZ          1.9140     1.7470     2.5450 c3         1 1SL       0.131100
      8 CBA          2.1330     3.2650     2.3000 c3         1 1SL       0.096500
      9 NAR          3.4900     3.5350     1.7100 ny         1 1SL      -0.670800
     10 CAT          3.5490     4.6680     0.7090 c          1 1SL       0.567100
     11 CAC          4.9140     5.2260     0.4750 c3         1 1SL      -0.188100
     12 OAD          2.5070     5.0180     0.1780 o          1 1SL      -0.410100
     13 CAO          0.4390     1.5320     2.8580 c3         1 1SL      -0.086200
     14 CAV         -0.0270     2.4580     3.9140 ce         1 1SL      -0.104400
     15 CAU         -1.3180     2.0330     4.6460 c          1 1SL       0.913800
     16 OAG         -1.9830     2.9470     5.1920 o          1 1SL      -0.789800
     17 OAE         -1.5790     0.8030     4.6280 o          1 1SL      -0.789800
     18 CAH          0.6220     3.5730     4.2640 c2         1 1SL      -0.282200
     19 CAY          1.9160     4.0120     3.6550 c3         1 1SL       0.119200
     20 NBB          1.9970     5.4600     3.4730 na         1 1SL       0.036400
     21 CAI          0.9780     6.3930     3.7000 cc         1 1SL      -0.161600
     22 NAQ          3.1310     6.1100     3.1010 nc         1 1SL      -0.289800
     23 NAP          2.9270     7.3640     3.0680 nd         1 1SL      -0.332000
     24 CAW          1.5890     7.6400     3.4380 cd         1 1SL       0.256600
     25 CAN          0.9920     8.9850     3.5300 c3         1 1SL      -0.094700
     26 CAM          1.0790     9.7370     2.2170 c3         1 1SL      -0.081400
     27 CAJ          0.3910    11.0860     2.3410 c3         1 1SL       0.130400
     28 OAF          0.5480    11.7460     1.0950 oh         1 1SL      -0.601800
     29 H1           0.1160    -1.6160     0.4770 hc         1 1SL       0.037367
     30 H2           0.1970     0.1120    -0.0580 hc         1 1SL       0.037367
     31 H3           0.4350    -1.2250    -1.2640 hc         1 1SL       0.037367
     32 H4           2.6330    -0.2520    -0.7160 hc         1 1SL       0.051700
     33 H5           2.5370    -1.9210    -0.0150 hc         1 1SL       0.051700
     34 H6           1.6730    -0.7190     2.1840 h1         1 1SL       0.076700
     35 H7           3.8670    -1.8220     2.0400 hc         1 1SL       0.051700
     36 H8           4.0020    -0.2550     2.9290 hc         1 1SL       0.051700
     37 H9           4.8450     0.8320     0.7770 hc         1 1SL       0.037367
     38 H10          5.9230    -0.4840     1.4100 hc         1 1SL       0.037367
     39 H11          4.8330    -0.7990    -0.0040 hc         1 1SL       0.037367
     40 H12          2.5570     1.3940     3.3980 h1         1 1SL       0.056700
     41 H13          1.3610     3.6080     1.5440 hx         1 1SL       0.145700
     42 H14          3.7860     2.6750     1.2180 hn         1 1SL       0.462300
     43 H15          4.8960     5.8130    -0.4810 hc         1 1SL       0.106700
     44 H16          5.6890     4.4260     0.3990 hc         1 1SL       0.106700
     45 H17          5.1800     5.9250     1.3120 hc         1 1SL       0.106700
     46 H18          0.2590     0.4780     3.2150 hc         1 1SL       0.102700
     47 H19         -0.1770     1.6700     1.9280 hc         1 1SL       0.102700
     48 H22          0.2220     4.1960     5.0830 ha         1 1SL       0.179000
     49 H24          2.7560     3.7200     4.3640 h1         1 1SL       0.070700
     50 H25         -0.0340     6.1150     4.0050 h4         1 1SL       0.229000
     51 H26         -0.0830     8.8780     3.8370 hc         1 1SL       0.060200
     52 H27          1.5170     9.5700     4.3340 hc         1 1SL       0.060200
     53 H28          2.1510     9.8940     1.9270 hc         1 1SL       0.063200
     54 H29          0.5940     9.1490     1.3970 hc         1 1SL       0.063200
     55 H30         -0.7010    10.9540     2.5710 h1         1 1SL       0.022700
     56 H31          0.8610    11.6980     3.1580 h1         1 1SL       0.022700
     57 H32          0.0810    12.5860     1.1670 ho         1 1SL       0.401000
     58 HAR2         4.1590     3.7300     2.4620 hn         1 1SL       0.462300
@<TRIPOS>BOND
     1     1     2 1   
     2     1    29 1   
     3     1    30 1   
     4     1    31 1   
     5     2     3 1   
     6     2    32 1   
     7     2    33 1   
     8     3     4 1   
     9     3     6 1   
    10     3    34 1   
    11     4     5 1   
    12     4    35 1   
    13     4    36 1   
    14     5    37 1   
    15     5    38 1   
    16     5    39 1   
    17     6     7 1   
    18     7     8 1   
    19     7    13 1   
    20     7    40 1   
    21     8     9 1   
    22     8    19 1   
    23     8    41 1   
    24     9    10 1   
    25     9    42 1   
    26     9    58 1   
    27    10    11 1   
    28    10    12 2   
    29    11    43 1   
    30    11    44 1   
    31    11    45 1   
    32    13    14 1   
    33    13    46 1   
    34    13    47 1   
    35    14    15 1   
    36    14    18 2   
    37    15    16 1   
    38    15    17 1   
    39    18    19 1   
    40    18    48 1   
    41    19    20 1   
    42    19    49 1   
    43    20    21 1   
    44    20    22 1   
    45    21    24 2   
    46    21    50 1   
    47    22    23 2   
    48    23    24 1   
    49    24    25 1   
    50    25    26 1   
    51    25    51 1   
    52    25    52 1   
    53    26    27 1   
    54    26    53 1   
    55    26    54 1   
    56    27    28 1   
    57    27    55 1   
    58    27    56 1   
    59    28    57 1   
@<TRIPOS>SUBSTRUCTURE
     1 1SL         1 TEMP              0 ****  ****    0 ROOT
