@<TRIPOS>MOLECULE
1SM
   42    43     1     0     0
SMALL
bcc


@<TRIPOS>ATOM
      1 C4           2.2890     2.2790     1.1190 ca         1 1SM      -0.128000
      2 C5           3.2510     1.2730     1.1320 ca         1 1SM      -0.026000
      3 C6           3.1550     0.2340     2.0660 ca         1 1SM      -0.101000
      4 C1           2.1060     0.2060     2.9810 ca         1 1SM       0.016400
      5 C2           1.0990     1.2000     2.9700 ca         1 1SM      -0.432500
      6 C3           1.2320     2.2380     2.0260 ca         1 1SM      -0.003000
      7 S7          -0.2320     1.2330     3.9130 sy         1 1SM       1.713800
      8 N8           0.0610     0.4430     7.1690 nv         1 1SM      -0.500100
      9 C9           0.2470     1.7080     6.7190 c2         1 1SM       0.742100
     10 N10          0.2680     2.8070     7.5410 nu         1 1SM      -0.405000
     11 C2'          0.1880     4.1530     7.0380 ca         1 1SM       0.716500
     12 N1'          1.0500     5.0600     7.6090 nb         1 1SM      -0.702500
     13 C6'          0.9260     6.3410     7.1790 ca         1 1SM       0.481100
     14 C5'         -0.0240     6.7030     6.1990 ca         1 1SM      -0.360600
     15 C4'         -0.8610     5.6960     5.6700 ca         1 1SM       0.481100
     16 N3'         -0.7680     4.4060     6.0830 nb         1 1SM      -0.702500
     17 O7A         -1.1130     2.2150     3.5720 o          1 1SM      -0.604800
     18 O7B         -0.6480     0.0290     4.4080 o          1 1SM      -0.604800
     19 O9           0.4370     1.9070     5.4200 os         1 1SM      -0.575300
     20 C11          2.1010    -0.8810     3.9900 c          1 1SM       0.642700
     21 O12          2.5730    -2.0650     3.5240 os         1 1SM      -0.403900
     22 C13          2.6060    -3.1610     4.4500 c3         1 1SM       0.122700
     23 O11          1.7540    -0.7940     5.1740 o          1 1SM      -0.573000
     24 C8'         -1.8890     6.0570     4.6490 c3         1 1SM      -0.165400
     25 C7'          1.8120     7.3910     7.7660 c3         1 1SM      -0.165400
     26 H4           2.3570     3.1060     0.3930 ha         1 1SM       0.172000
     27 H5           4.0870     1.2880     0.4120 ha         1 1SM       0.171000
     28 H6           3.9120    -0.5710     2.0780 ha         1 1SM       0.181000
     29 H3           0.4680     3.0400     1.9940 ha         1 1SM       0.177000
     30 HN8          0.1070    -0.3190     6.5150 hn         1 1SM       0.338700
     31 H10          0.4660     2.7040     8.5160 hn         1 1SM       0.338700
     32 H5'         -0.1140     7.7430     5.8590 ha         1 1SM       0.174000
     33 H131         3.0160    -3.9990     3.8330 h1         1 1SM       0.068367
     34 H132         3.2760    -2.9100     5.3060 h1         1 1SM       0.068367
     35 H133         1.5730    -3.3800     4.8110 h1         1 1SM       0.068367
     36 H8'1        -1.5490     6.9480     4.0670 hc         1 1SM       0.073700
     37 H8'2        -2.8490     6.3090     5.1670 hc         1 1SM       0.073700
     38 H8'3        -2.0850     5.2130     3.9410 hc         1 1SM       0.073700
     39 H7'1         1.4430     7.6630     8.7880 hc         1 1SM       0.073700
     40 H7'2         1.8000     8.3050     7.1240 hc         1 1SM       0.073700
     41 H7'3         2.8660     7.0290     7.8600 hc         1 1SM       0.073700
     42 H82         -0.0350     0.2390     8.1370 hn         1 1SM       0.338700
@<TRIPOS>BOND
     1     1     2 ar  
     2     1     6 ar  
     3     1    26 1   
     4     2     3 ar  
     5     2    27 1   
     6     3     4 ar  
     7     3    28 1   
     8     4     5 ar  
     9     4    20 1   
    10     5     6 ar  
    11     5     7 1   
    12     6    29 1   
    13     7    17 2   
    14     7    18 2   
    15     7    19 1   
    16     8     9 2   
    17     8    30 1   
    18     8    42 1   
    19     9    10 1   
    20     9    19 1   
    21    10    11 1   
    22    10    31 1   
    23    11    12 ar  
    24    11    16 ar  
    25    12    13 ar  
    26    13    14 ar  
    27    13    25 1   
    28    14    15 ar  
    29    14    32 1   
    30    15    16 ar  
    31    15    24 1   
    32    20    21 1   
    33    20    23 2   
    34    21    22 1   
    35    22    33 1   
    36    22    34 1   
    37    22    35 1   
    38    24    36 1   
    39    24    37 1   
    40    24    38 1   
    41    25    39 1   
    42    25    40 1   
    43    25    41 1   
@<TRIPOS>SUBSTRUCTURE
     1 1SM         1 TEMP              0 ****  ****    0 ROOT
