@<TRIPOS>MOLECULE
1SM
   41    42     1     0     0
SMALL
bcc


@<TRIPOS>ATOM
      1 C4           0.0000     0.0000     0.0000 ca         1 1SM      -0.097000
      2 C5           1.3840     0.0000     0.0000 ca         1 1SM      -0.069000
      3 C6           2.0770     0.0000     1.1930 ca         1 1SM      -0.081000
      4 C1           1.3790     0.0020     2.4020 ca         1 1SM      -0.060600
      5 C2          -0.0160    -0.0040     2.3940 ca         1 1SM      -0.082500
      6 C3          -0.6960     0.0020     1.1950 ca         1 1SM       0.017000
      7 S7          -0.9070    -0.0020     3.9140 sy         1 1SM       1.065900
      8 N8          -0.5240    -1.4000     4.7140 ns         1 1SM      -0.297300
      9 C9          -0.8130    -2.5930     4.1600 c          1 1SM       0.608100
     10 N10         -0.5940    -3.7290     4.8520 ns         1 1SM      -0.102400
     11 C2'         -0.7880    -4.9620     4.2430 ca         1 1SM       0.588900
     12 N1'         -1.0930    -5.0060     2.9560 nb         1 1SM      -0.637500
     13 C6'         -1.2790    -6.1640     2.3440 ca         1 1SM       0.442600
     14 C5'         -1.1630    -7.3380     3.0720 ca         1 1SM      -0.386600
     15 C4'         -0.8500    -7.2550     4.4190 ca         1 1SM       0.442600
     16 N3'         -0.6700    -6.0650     4.9660 nb         1 1SM      -0.637500
     17 O7A         -0.3480     1.0510     4.6880 o          1 1SM      -0.566800
     18 O7B         -2.2770    -0.1230     3.5600 o          1 1SM      -0.566800
     19 O9          -1.2710    -2.6460     3.0350 o          1 1SM      -0.619100
     20 C11          2.1140     0.0020     3.6830 c          1 1SM       0.719700
     21 O12          3.4560     0.1300     3.6890 os         1 1SM      -0.421900
     22 C13          4.1890     0.0210     4.9380 c3         1 1SM       0.282700
     23 O11          1.5110    -0.1130     4.7290 o          1 1SM      -0.583000
     24 C8'         -0.7140    -8.5060     5.2480 c3         1 1SM      -0.041900
     25 C7'         -1.6190    -6.2060     0.8770 c3         1 1SM      -0.041900
     26 H4          -0.5400     0.0020    -0.9390 ha         1 1SM       0.109000
     27 H5           1.9240    -0.0010    -0.9390 ha         1 1SM       0.105000
     28 H6           3.1600     0.0020     1.1910 ha         1 1SM       0.119000
     29 H3          -1.7800    -0.0000     1.1880 ha         1 1SM       0.139000
     30 HN8         -0.1290    -1.3580     5.6320 hn         1 1SM       0.242500
     31 H10         -0.2970    -3.6830     5.8060 hn         1 1SM       0.174500
     32 H5'         -1.3130    -8.3000     2.5970 ha         1 1SM       0.128000
     33 H131         5.2530     0.0520     4.7360 h1         1 1SM       0.000367
     34 H132         3.9200     0.8450     5.5880 h1         1 1SM       0.000367
     35 H133         3.9410    -0.9160     5.4210 h1         1 1SM       0.000367
     36 H8'1        -0.4830    -8.2370     6.2720 hc         1 1SM       0.017367
     37 H8'2         0.0830    -9.1200     4.8480 hc         1 1SM       0.017367
     38 H8'3        -1.6450    -9.0590     5.2220 hc         1 1SM       0.017367
     39 H7'1        -2.6720    -6.4270     0.7570 hc         1 1SM       0.017367
     40 H7'2        -1.3980    -5.2450     0.4280 hc         1 1SM       0.017367
     41 H7'3        -1.0310    -6.9750     0.3920 hc         1 1SM       0.017367
@<TRIPOS>BOND
     1     1     2 ar  
     2     1     6 ar  
     3     1    26 1   
     4     2     3 ar  
     5     2    27 1   
     6     3     4 ar  
     7     3    28 1   
     8     4     5 ar  
     9     4    20 1   
    10     5     6 ar  
    11     5     7 1   
    12     6    29 1   
    13     7     8 1   
    14     7    17 2   
    15     7    18 2   
    16     8     9 1   
    17     8    30 1   
    18     9    10 1   
    19     9    19 2   
    20    10    11 1   
    21    10    31 1   
    22    11    12 ar  
    23    11    16 ar  
    24    12    13 ar  
    25    13    14 ar  
    26    13    25 1   
    27    14    15 ar  
    28    14    32 1   
    29    15    16 ar  
    30    15    24 1   
    31    20    21 1   
    32    20    23 2   
    33    21    22 1   
    34    22    33 1   
    35    22    34 1   
    36    22    35 1   
    37    24    36 1   
    38    24    37 1   
    39    24    38 1   
    40    25    39 1   
    41    25    40 1   
    42    25    41 1   
@<TRIPOS>SUBSTRUCTURE
     1 1SM         1 TEMP              0 ****  ****    0 ROOT
