@<TRIPOS>MOLECULE
1SN
   58    59     1     0     0
SMALL
bcc


@<TRIPOS>ATOM
      1 CAB          0.6610    -1.9020     1.0530 c3         1 1SN      -0.096600
      2 CAL          1.7460    -0.9560     0.6120 c3         1 1SN      -0.094900
      3 CAX          2.2210    -0.0580     1.7540 c3         1 1SN       0.153100
      4 CAM          3.5530     0.6090     1.4280 c3         1 1SN      -0.094900
      5 CAC          4.7130    -0.3090     1.7150 c3         1 1SN      -0.096600
      6 OAR          1.1780     0.9220     1.9060 os         1 1SN      -0.491600
      7 CAZ          1.2730     1.7840     3.0380 c3         1 1SN       0.139100
      8 CBA         -0.1570     2.3590     3.2580 c3         1 1SN       0.096500
      9 NAQ         -0.7720     2.8170     1.9620 ny         1 1SN      -0.667800
     10 CAS         -2.2550     2.5560     1.8180 c          1 1SN       0.571100
     11 CAD         -2.9410     3.3920     0.7890 c3         1 1SN      -0.188100
     12 OAE         -2.7570     1.6960     2.5250 o          1 1SN      -0.416100
     13 CAN          1.7020     1.1010     4.3280 c3         1 1SN      -0.090200
     14 CAU          1.5280     1.9970     5.4920 ce         1 1SN      -0.105400
     15 CAT          2.3620     1.6320     6.7390 c          1 1SN       0.913800
     16 OAG          3.3810     0.9250     6.5290 o          1 1SN      -0.789800
     17 OAF          1.9500     2.0700     7.8400 o          1 1SN      -0.789800
     18 CAI          0.7360     3.0740     5.4860 c2         1 1SN      -0.280200
     19 CAY         -0.0630     3.5190     4.3020 c3         1 1SN       0.118200
     20 NBB         -1.3940     4.0020     4.6710 na         1 1SN       0.035400
     21 CAJ         -1.9410     4.0490     5.9570 cc         1 1SN      -0.142600
     22 NAP         -2.2730     4.5420     3.7850 nc         1 1SN      -0.295800
     23 NAO         -3.3260     4.9210     4.3870 nd         1 1SN      -0.315000
     24 CAV         -3.2060     4.6500     5.7700 cd         1 1SN       0.256600
     25 CAW         -4.2470     5.0000     6.7740 c3         1 1SN       0.130800
     26 CAK         -4.0480     4.2640     8.0990 c3         1 1SN      -0.117400
     27 CAA         -4.3410     2.7930     7.9810 c3         1 1SN      -0.095100
     28 OAH         -4.1600     6.4110     6.9660 oh         1 1SN      -0.589800
     29 H1          -0.2070    -1.3350     1.4670 hc         1 1SN       0.042367
     30 H2           0.3070    -2.5140     0.1880 hc         1 1SN       0.042367
     31 H3           1.0360    -2.5940     1.8450 hc         1 1SN       0.042367
     32 H4           2.6320    -1.5360     0.2390 hc         1 1SN       0.048950
     33 H5           1.3780    -0.3160    -0.2320 hc         1 1SN       0.048950
     34 H6           2.3060    -0.6570     2.7030 h1         1 1SN       0.073700
     35 H7           3.6650     1.5390     2.0460 hc         1 1SN       0.048950
     36 H8           3.5610     0.9200     0.3510 hc         1 1SN       0.048950
     37 H9           4.6370    -1.2510     1.1200 hc         1 1SN       0.042367
     38 H10          5.6740     0.1970     1.4500 hc         1 1SN       0.042367
     39 H11          4.7450    -0.5760     2.8000 hc         1 1SN       0.042367
     40 H12          1.9800     2.6240     2.7840 h1         1 1SN       0.057700
     41 H13         -0.8060     1.5250     3.6640 hx         1 1SN       0.142700
     42 H14         -0.3000     2.3100     1.1970 hn         1 1SN       0.462800
     43 H15         -3.9210     2.9100     0.5370 hc         1 1SN       0.107033
     44 H16         -3.1480     4.4110     1.2140 hc         1 1SN       0.107033
     45 H17         -2.3340     3.4970    -0.1430 hc         1 1SN       0.107033
     46 H18          1.1150     0.1570     4.4880 hc         1 1SN       0.102200
     47 H19          2.7930     0.8140     4.2720 hc         1 1SN       0.102200
     48 H22          0.6900     3.7130     6.3850 ha         1 1SN       0.180000
     49 H24          0.4820     4.3920     3.8200 h1         1 1SN       0.070700
     50 H25         -1.4310     3.6670     6.8450 h4         1 1SN       0.230000
     51 H26         -5.2680     4.7510     6.3580 h1         1 1SN       0.051700
     52 H27         -4.7310     4.7240     8.8620 hc         1 1SN       0.054700
     53 H28         -2.9980     4.4240     8.4600 hc         1 1SN       0.054700
     54 H29         -5.3920     2.6220     7.6440 hc         1 1SN       0.040367
     55 H30         -3.6520     2.3130     7.2440 hc         1 1SN       0.040367
     56 H31         -4.2010     2.2930     8.9710 hc         1 1SN       0.040367
     57 H32         -4.8180     6.6380     7.6330 ho         1 1SN       0.403000
     58 HAQ2        -0.6040     3.8210     1.8400 hn         1 1SN       0.462800
@<TRIPOS>BOND
     1     1     2 1   
     2     1    29 1   
     3     1    30 1   
     4     1    31 1   
     5     2     3 1   
     6     2    32 1   
     7     2    33 1   
     8     3     4 1   
     9     3     6 1   
    10     3    34 1   
    11     4     5 1   
    12     4    35 1   
    13     4    36 1   
    14     5    37 1   
    15     5    38 1   
    16     5    39 1   
    17     6     7 1   
    18     7     8 1   
    19     7    13 1   
    20     7    40 1   
    21     8     9 1   
    22     8    19 1   
    23     8    41 1   
    24     9    10 1   
    25     9    42 1   
    26     9    58 1   
    27    10    11 1   
    28    10    12 2   
    29    11    43 1   
    30    11    44 1   
    31    11    45 1   
    32    13    14 1   
    33    13    46 1   
    34    13    47 1   
    35    14    15 1   
    36    14    18 2   
    37    15    16 1   
    38    15    17 1   
    39    18    19 1   
    40    18    48 1   
    41    19    20 1   
    42    19    49 1   
    43    20    21 1   
    44    20    22 1   
    45    21    24 2   
    46    21    50 1   
    47    22    23 2   
    48    23    24 1   
    49    24    25 1   
    50    25    26 1   
    51    25    28 1   
    52    25    51 1   
    53    26    27 1   
    54    26    52 1   
    55    26    53 1   
    56    27    54 1   
    57    27    55 1   
    58    27    56 1   
    59    28    57 1   
@<TRIPOS>SUBSTRUCTURE
     1 1SN         1 TEMP              0 ****  ****    0 ROOT
