@<TRIPOS>MOLECULE
molecule
   57    58     1     0     0
SMALL
bcc


@<TRIPOS>ATOM
      1 CAB          0.0000     0.0000     0.0000 c3         1 1SN      -0.093100
      2 CAL          1.5300     0.0000     0.0000 c3         1 1SN      -0.095400
      3 CAX          2.0410     0.0000     1.4420 c3         1 1SN       0.144100
      4 CAM          3.5660    -0.1260     1.4430 c3         1 1SN      -0.095400
      5 CAC          4.0640    -0.2740     2.8820 c3         1 1SN      -0.093100
      6 OAR          1.6630     1.2210     2.0810 os         1 1SN      -0.414600
      7 CAZ          1.3190     1.0720     3.4610 c3         1 1SN       0.118100
      8 CBA          1.4800     2.4180     4.1790 c3         1 1SN       0.104700
      9 NAQ          2.8170     2.9570     3.9220 ns         1 1SN      -0.574900
     10 CAS          2.9810     4.2770     3.7030 c          1 1SN       0.666100
     11 CAD          4.3570     4.8320     3.4400 c3         1 1SN      -0.168100
     12 OAE          2.0220     5.0180     3.7210 o          1 1SN      -0.607100
     13 CAN         -0.1370     0.6220     3.5820 c3         1 1SN      -0.061200
     14 CAU         -0.5880     0.7090     5.0110 ce         1 1SN      -0.101400
     15 CAT         -1.8020    -0.0210     5.4000 c          1 1SN       0.871800
     16 OAG         -2.2000     0.0280     6.5480 o          1 1SN      -0.827800
     17 OAF         -2.4750    -0.7460     4.4840 o          1 1SN      -0.827800
     18 CAI          0.0400     1.4040     5.9350 c2         1 1SN      -0.255200
     19 CAY          1.2960     2.1920     5.6810 c3         1 1SN       0.094200
     20 NBB          1.2030     3.4880     6.3570 na         1 1SN       0.152400
     21 CAJ          0.0750     4.2200     6.5130 cd         1 1SN      -0.238600
     22 NAP          2.1770     4.1230     6.9070 nd         1 1SN      -0.232800
     23 NAO          1.7570     5.2300     7.4110 nc         1 1SN      -0.360000
     24 CAV          0.4420     5.3350     7.1880 cc         1 1SN       0.240600
     25 CAW         -0.4550     6.4730     7.6060 c3         1 1SN       0.146800
     26 CAK         -0.3290     6.6930     9.1140 c3         1 1SN      -0.091400
     27 CAA         -1.3300     7.7630     9.5580 c3         1 1SN      -0.094100
     28 OAH         -0.0670     7.6630     6.9160 oh         1 1SN      -0.591800
     29 H1          -0.3610    -0.2160    -0.9980 hc         1 1SN       0.036200
     30 H2          -0.3610     0.9720     0.3120 hc         1 1SN       0.036200
     31 H3          -0.3610    -0.7570     0.6860 hc         1 1SN       0.036200
     32 H4           1.8910    -0.8850    -0.5110 hc         1 1SN       0.041950
     33 H5           1.8910     0.8840    -0.5110 hc         1 1SN       0.041950
     34 H6           1.6090    -0.8370     1.9770 h1         1 1SN       0.049700
     35 H7           4.0020     0.7610     1.0000 hc         1 1SN       0.041950
     36 H8           3.8570    -0.9970     0.8690 hc         1 1SN       0.041950
     37 H9           3.2760    -0.6950     3.4950 hc         1 1SN       0.036200
     38 H10          4.3430     0.6990     3.2690 hc         1 1SN       0.036200
     39 H11          4.9250    -0.9300     2.9000 hc         1 1SN       0.036200
     40 H12          1.9650     0.3360     3.9240 h1         1 1SN       0.038700
     41 H13          0.7270     3.1110     3.8230 h1         1 1SN       0.111700
     42 H14          3.6130     2.3500     3.9380 hn         1 1SN       0.309500
     43 H15          4.3420     5.9090     3.5630 hc         1 1SN       0.054700
     44 H16          4.6570     4.5890     2.4280 hc         1 1SN       0.054700
     45 H17          5.0620     4.3990     4.1390 hc         1 1SN       0.054700
     46 H18         -0.2240    -0.4030     3.2410 hc         1 1SN       0.077200
     47 H19         -0.7620     1.2630     2.9710 hc         1 1SN       0.077200
     48 H22         -0.2970     1.2840     6.9580 ha         1 1SN       0.169000
     49 H24          2.1460     1.6420     6.0650 h1         1 1SN       0.076700
     50 H25         -0.9190     3.9670     6.1670 h4         1 1SN       0.193000
     51 H26         -1.4820     6.2310     7.3600 h1         1 1SN       0.034700
     52 H27         -0.5380     5.7650     9.6340 hc         1 1SN       0.059700
     53 H28          0.6770     7.0200     9.3490 hc         1 1SN       0.059700
     54 H29         -2.2730     7.6100     9.0470 hc         1 1SN       0.028367
     55 H30         -0.9420     8.7440     9.3140 hc         1 1SN       0.028367
     56 H31         -1.4840     7.6920    10.6280 hc         1 1SN       0.028367
     57 H32         -0.8050     8.0020     6.4350 ho         1 1SN       0.392000
@<TRIPOS>BOND
     1    16    15 1   
     2    23    22 2   
     3    23    24 1   
     4    22    20 1   
     5    15    14 1   
     6    15    17 1   
     7    27    26 1   
     8    14    18 2   
     9    14    13 1   
    10    18    19 1   
    11    13     7 1   
    12    24    25 1   
    13    24    21 2   
    14    20    19 1   
    15    20    21 1   
    16    25    26 1   
    17    25    28 1   
    18    12    10 2   
    19    19     8 1   
    20     8     7 1   
    21     8     9 1   
    22     7     6 1   
    23     6     3 1   
    24    10     9 1   
    25    10    11 1   
    26     3     2 1   
    27     3     4 1   
    28     1     2 1   
    29     5     4 1   
    30     1    29 1   
    31     1    30 1   
    32     1    31 1   
    33     2    32 1   
    34     2    33 1   
    35     3    34 1   
    36     4    35 1   
    37     4    36 1   
    38     5    37 1   
    39     5    38 1   
    40     5    39 1   
    41     7    40 1   
    42     8    41 1   
    43     9    42 1   
    44    11    43 1   
    45    11    44 1   
    46    11    45 1   
    47    13    46 1   
    48    13    47 1   
    49    18    48 1   
    50    19    49 1   
    51    21    50 1   
    52    25    51 1   
    53    26    52 1   
    54    26    53 1   
    55    27    54 1   
    56    27    55 1   
    57    27    56 1   
    58    28    57 1   
@<TRIPOS>SUBSTRUCTURE
     1 1SN         1 TEMP              0 ****  ****    0 ROOT
