@<TRIPOS>MOLECULE
molecule
   57    58     1     0     0
SMALL
bcc


@<TRIPOS>ATOM
      1 CAD          0.0000     0.0000     0.0000 c3         1 1SO      -0.114600
      2 CBB          1.5290     0.0000     0.0000 c3         1 1SO       0.146500
      3 CAE          2.0400     0.0000     1.4420 c3         1 1SO      -0.114600
      4 OAI          2.0050    -1.1680    -0.6740 oh         1 1SO      -0.593800
      5 CAV          2.0320     1.2300    -0.7120 cc         1 1SO       0.262600
      6 CAK          3.3200     1.5310    -0.9960 cd         1 1SO      -0.214600
      7 NAO          1.2910     2.2360    -1.1920 nc         1 1SO      -0.378000
      8 NAP          2.0700     3.1050    -1.7320 nd         1 1SO      -0.229800
      9 NBA          3.2960     2.7230    -1.6370 na         1 1SO       0.148400
     10 CAX          4.4640     3.4520    -2.1380 c3         1 1SO       0.096200
     11 CAZ          4.8290     2.9310    -3.5290 c3         1 1SO       0.107700
     12 NAQ          3.8090     3.3490    -4.4940 ns         1 1SO      -0.577900
     13 CAS          2.7610     2.5440    -4.7580 c          1 1SO       0.661100
     14 OAF          2.6620     1.4740    -4.1970 o          1 1SO      -0.601100
     15 CAC          1.7110     2.9730    -5.7510 c3         1 1SO      -0.168100
     16 CAJ          5.6150     3.2570    -1.1940 c2         1 1SO      -0.251200
     17 CAU          6.8500     3.0230    -1.5850 ce         1 1SO      -0.103400
     18 CAT          7.8840     2.8610    -0.5540 c          1 1SO       0.872800
     19 OAH          7.5870     2.9420     0.6220 o          1 1SO      -0.829300
     20 OAG          9.1610     2.6210    -0.9110 o          1 1SO      -0.829300
     21 CAN          7.2640     2.9160    -3.0240 c3         1 1SO      -0.059200
     22 CAY          6.1870     3.5190    -3.9280 c3         1 1SO       0.116100
     23 OAR          6.4690     3.1960    -5.2920 os         1 1SO      -0.417600
     24 CAW          7.3950     4.0850    -5.9220 c3         1 1SO       0.144100
     25 CAM          8.2710     3.2990    -6.8980 c3         1 1SO      -0.095400
     26 CAB          9.1220     2.2910    -6.1230 c3         1 1SO      -0.094100
     27 CAL          6.6270     5.1680    -6.6810 c3         1 1SO      -0.095400
     28 CAA          5.8750     6.0550    -5.6860 c3         1 1SO      -0.094100
     29 H1          -0.3610    -0.0360    -1.0210 hc         1 1SO       0.041700
     30 H2          -0.3610     0.9020     0.4800 hc         1 1SO       0.041700
     31 H3          -0.3610    -0.8660     0.5410 hc         1 1SO       0.041700
     32 H4           1.5070    -0.7500     2.0130 hc         1 1SO       0.041700
     33 H5           1.8750     0.9750     1.8830 hc         1 1SO       0.041700
     34 H6           3.1000    -0.2250     1.4490 hc         1 1SO       0.041700
     35 H7           1.6150    -1.9340    -0.2880 ho         1 1SO       0.393000
     36 H8           4.1950     0.9390    -0.7560 h4         1 1SO       0.200000
     37 H9           4.2320     4.5080    -2.2030 h1         1 1SO       0.077700
     38 H10          4.8950     1.8500    -3.5050 h1         1 1SO       0.108700
     39 H11          3.9060     4.2180    -4.9790 hn         1 1SO       0.310500
     40 H12          2.1380     2.9840    -6.7460 hc         1 1SO       0.053700
     41 H13          1.3600     3.9670    -5.4980 hc         1 1SO       0.053700
     42 H14          0.8810     2.2790    -5.7210 hc         1 1SO       0.053700
     43 H15          5.4180     3.3110    -0.1310 ha         1 1SO       0.168000
     44 H18          7.4010     1.8720    -3.2790 hc         1 1SO       0.077200
     45 H19          6.1670     4.5950    -3.8000 h1         1 1SO       0.040700
     46 H20          8.0210     4.5470    -5.1680 h1         1 1SO       0.050700
     47 H21          8.9190     3.9830    -7.4320 hc         1 1SO       0.041950
     48 H22          7.6420     2.7720    -7.6050 hc         1 1SO       0.041950
     49 H23          9.8860     1.8860    -6.7760 hc         1 1SO       0.037200
     50 H24          9.5920     2.7860    -5.2820 hc         1 1SO       0.037200
     51 H25          8.4920     1.4870    -5.7630 hc         1 1SO       0.037200
     52 H26          7.3230     5.7730    -7.2490 hc         1 1SO       0.041950
     53 H27          5.9190     4.7020    -7.3560 hc         1 1SO       0.041950
     54 H28          6.3310     5.9650    -4.7070 hc         1 1SO       0.037200
     55 H29          4.8400     5.7410    -5.6330 hc         1 1SO       0.037200
     56 H30          5.9240     7.0860    -6.0130 hc         1 1SO       0.037200
     57 H16          8.1940     3.4510    -3.1690 hc         1 1SO       0.077200
@<TRIPOS>BOND
     1    19    18 1   
     2     7     8 2   
     3     7     5 1   
     4    18    20 1   
     5    18    17 1   
     6     3     2 1   
     7     8     9 1   
     8    17    16 2   
     9    17    21 1   
    10    16    10 1   
    11     5     2 1   
    12     5     6 2   
    13     2     1 1   
    14     2     4 1   
    15     9    10 1   
    16     9     6 1   
    17    21    22 1   
    18    15    13 1   
    19    10    11 1   
    20    11    22 1   
    21    11    12 1   
    22    23    22 1   
    23    23    24 1   
    24    26    25 1   
    25    13    12 1   
    26    13    14 2   
    27    25    24 1   
    28    28    27 1   
    29    24    27 1   
    30     1    29 1   
    31     1    30 1   
    32     1    31 1   
    33     3    32 1   
    34     3    33 1   
    35     3    34 1   
    36     4    35 1   
    37     6    36 1   
    38    10    37 1   
    39    11    38 1   
    40    12    39 1   
    41    15    40 1   
    42    15    41 1   
    43    15    42 1   
    44    16    43 1   
    45    21    44 1   
    46    22    45 1   
    47    24    46 1   
    48    25    47 1   
    49    25    48 1   
    50    26    49 1   
    51    26    50 1   
    52    26    51 1   
    53    27    52 1   
    54    27    53 1   
    55    28    54 1   
    56    28    55 1   
    57    28    56 1   
    58    21    57 1   
@<TRIPOS>SUBSTRUCTURE
     1 1SO         1 TEMP              0 ****  ****    0 ROOT
