@<TRIPOS>MOLECULE
1SO
   58    59     1     0     0
SMALL
bcc


@<TRIPOS>ATOM
      1 CAD          1.1520     1.2060     0.9260 c3         1 1SO      -0.119600
      2 CBB          2.2440     0.2060     0.5560 c3         1 1SO       0.143500
      3 CAE          2.6940    -0.5720     1.7900 c3         1 1SO      -0.119600
      4 OAI          3.3550     0.9050    -0.0210 oh         1 1SO      -0.604800
      5 CAV          1.7790    -0.7360    -0.5040 cc         1 1SO       0.257600
      6 CAK          2.4420    -1.1070    -1.6920 cd         1 1SO      -0.140600
      7 NAO          0.5520    -1.4380    -0.4830 nc         1 1SO      -0.322000
      8 NAP          0.4610    -2.1630    -1.5230 nd         1 1SO      -0.274800
      9 NBA          1.5520    -1.9930    -2.3140 na         1 1SO       0.026400
     10 CAX          1.8580    -2.7670    -3.5190 c3         1 1SO       0.117200
     11 CAZ          0.7610    -3.8230    -3.8450 c3         1 1SO       0.103500
     12 NAQ         -0.6010    -3.2190    -4.0450 ny         1 1SO      -0.672800
     13 CAS         -1.5880    -3.4090    -2.9110 c          1 1SO       0.586100
     14 OAF         -2.3110    -2.4440    -2.7090 o          1 1SO      -0.436100
     15 CAC         -1.6120    -4.7300    -2.2270 c3         1 1SO      -0.180100
     16 CAJ          3.1870    -3.4590    -3.4500 c2         1 1SO      -0.277200
     17 CAU          3.4400    -4.6460    -4.0110 ce         1 1SO      -0.113400
     18 CAT          4.8630    -5.2450    -3.9990 c          1 1SO       0.913800
     19 OAH          5.1000    -6.1090    -4.8820 o          1 1SO      -0.789300
     20 OAG          5.6540    -4.8140    -3.1250 o          1 1SO      -0.789300
     21 CAN          2.4230    -5.4580    -4.7140 c3         1 1SO      -0.077200
     22 CAY          1.2190    -4.6120    -5.1110 c3         1 1SO       0.129100
     23 OAR          0.1170    -5.4360    -5.4890 os         1 1SO      -0.460600
     24 CAW         -0.1290    -5.5030    -6.9050 c3         1 1SO       0.145100
     25 CAM         -1.4950    -6.1680    -7.0490 c3         1 1SO      -0.097900
     26 CAB         -2.6180    -5.2670    -6.6100 c3         1 1SO      -0.092600
     27 CAL          0.9620    -6.2690    -7.6420 c3         1 1SO      -0.097900
     28 CAA          1.1450    -7.6770    -7.1400 c3         1 1SO      -0.092600
     29 H1           1.5440     1.9280     1.6810 hc         1 1SO       0.050867
     30 H2           0.8300     1.7740     0.0220 hc         1 1SO       0.050867
     31 H3           0.2720     0.6730     1.3570 hc         1 1SO       0.050867
     32 H4           3.5500    -1.2390     1.5310 hc         1 1SO       0.050867
     33 H5           3.0200     0.1390     2.5870 hc         1 1SO       0.050867
     34 H6           1.8520    -1.1910     2.1790 hc         1 1SO       0.050867
     35 H7           3.7460     1.4280     0.6890 ho         1 1SO       0.411000
     36 H8           3.4100    -0.8140    -2.1010 h4         1 1SO       0.223000
     37 H9           1.8950    -2.0080    -4.3630 h1         1 1SO       0.063700
     38 H10          0.6970    -4.5620    -2.9910 hx         1 1SO       0.131700
     39 H11         -0.5110    -2.2150    -4.2350 hn         1 1SO       0.456300
     40 H12         -0.8740    -4.7150    -1.3800 hc         1 1SO       0.111367
     41 H13         -2.6360    -4.8860    -1.7980 hc         1 1SO       0.111367
     42 H14         -1.3660    -5.5730    -2.9200 hc         1 1SO       0.111367
     43 H15          3.9980    -2.9280    -2.9210 ha         1 1SO       0.182000
     44 H18          2.8940    -5.9190    -5.6300 hc         1 1SO       0.103700
     45 H19          1.4920    -3.8940    -5.9320 h1         1 1SO       0.064700
     46 H20         -0.1730    -4.4490    -7.3090 h1         1 1SO       0.022700
     47 H21         -1.5050    -7.1130    -6.4440 hc         1 1SO       0.063450
     48 H22         -1.6300    -6.4510    -8.1260 hc         1 1SO       0.063450
     49 H23         -2.6030    -4.3020    -7.1710 hc         1 1SO       0.037700
     50 H24         -3.6030    -5.7630    -6.7890 hc         1 1SO       0.037700
     51 H25         -2.5360    -5.0450    -5.5170 hc         1 1SO       0.037700
     52 H26          1.9290    -5.7080    -7.5350 hc         1 1SO       0.063450
     53 H27          0.7000    -6.2820    -8.7330 hc         1 1SO       0.063450
     54 H28          2.0310    -8.1460    -7.6330 hc         1 1SO       0.037700
     55 H29          1.3160    -7.6740    -6.0350 hc         1 1SO       0.037700
     56 H30          0.2440    -8.2990    -7.3590 hc         1 1SO       0.037700
     57 H16          2.0980    -6.3110    -4.0590 hc         1 1SO       0.103700
     58 HAQ2        -1.0180    -3.6750    -4.8740 hn         1 1SO       0.456300
@<TRIPOS>BOND
     1     1     2 1   
     2     1    29 1   
     3     1    30 1   
     4     1    31 1   
     5     2     3 1   
     6     2     4 1   
     7     2     5 1   
     8     3    32 1   
     9     3    33 1   
    10     3    34 1   
    11     4    35 1   
    12     5     6 2   
    13     5     7 1   
    14     6     9 1   
    15     6    36 1   
    16     7     8 2   
    17     8     9 1   
    18     9    10 1   
    19    10    11 1   
    20    10    16 1   
    21    10    37 1   
    22    11    12 1   
    23    11    22 1   
    24    11    38 1   
    25    12    13 1   
    26    12    39 1   
    27    12    58 1   
    28    13    14 2   
    29    13    15 1   
    30    15    40 1   
    31    15    41 1   
    32    15    42 1   
    33    16    17 2   
    34    16    43 1   
    35    17    18 1   
    36    17    21 1   
    37    18    19 1   
    38    18    20 1   
    39    21    22 1   
    40    21    44 1   
    41    21    57 1   
    42    22    23 1   
    43    22    45 1   
    44    23    24 1   
    45    24    25 1   
    46    24    27 1   
    47    24    46 1   
    48    25    26 1   
    49    25    47 1   
    50    25    48 1   
    51    26    49 1   
    52    26    50 1   
    53    26    51 1   
    54    27    28 1   
    55    27    52 1   
    56    27    53 1   
    57    28    54 1   
    58    28    55 1   
    59    28    56 1   
@<TRIPOS>SUBSTRUCTURE
     1 1SO         1 TEMP              0 ****  ****    0 ROOT
