@<TRIPOS>MOLECULE
1SO
   57    58     1     0     0
SMALL
bcc


@<TRIPOS>ATOM
      1 CAD          0.0000     0.0000     0.0000 c3         1 1SO      -0.032600
      2 CBB          1.5290     0.0000     0.0000 c3         1 1SO       0.171500
      3 CAE          2.0400     0.0000     1.4420 c3         1 1SO      -0.032600
      4 OAI          2.0050    -1.1680    -0.6740 oh         1 1SO      -0.578800
      5 CAV          2.0320     1.2300    -0.7120 cc         1 1SO       0.246600
      6 CAK          3.3200     1.5310    -0.9960 cd         1 1SO      -0.375600
      7 NAO          1.2910     2.2360    -1.1920 nc         1 1SO      -0.326000
      8 NAP          2.0700     3.1050    -1.7320 nd         1 1SO      -0.412800
      9 NBA          3.2960     2.7230    -1.6370 na         1 1SO       0.623400
     10 CAX          4.4640     3.4520    -2.1380 c3         1 1SO      -0.011800
     11 CAZ          4.8290     2.9310    -3.5290 c3         1 1SO      -0.002300
     12 NAQ          3.8090     3.3490    -4.4940 ns         1 1SO      -0.193900
     13 CAS          2.7610     2.5440    -4.7580 c          1 1SO       0.576100
     14 OAF          2.6620     1.4740    -4.1970 o          1 1SO      -0.645100
     15 CAC          1.7110     2.9730    -5.7510 c3         1 1SO      -0.066100
     16 CAJ          5.6150     3.2570    -1.1940 c2         1 1SO      -0.259200
     17 CAU          6.8500     3.0230    -1.5850 ce         1 1SO      -0.095400
     18 CAT          7.8840     2.8610    -0.5540 c          1 1SO       0.960800
     19 OAH          7.5870     2.9420     0.6220 o          1 1SO      -0.875800
     20 OAG          9.1610     2.6210    -0.9110 o          1 1SO      -0.875800
     21 CAN          7.2640     2.9160    -3.0240 c3         1 1SO      -0.001200
     22 CAY          6.1870     3.5190    -3.9280 c3         1 1SO       0.140100
     23 OAR          6.4690     3.1960    -5.2920 os         1 1SO      -0.399600
     24 CAW          7.3950     4.0850    -5.9220 c3         1 1SO       0.170100
     25 CAM          8.2710     3.2990    -6.8980 c3         1 1SO      -0.046400
     26 CAB          9.1220     2.2910    -6.1230 c3         1 1SO      -0.006600
     27 CAL          6.6270     5.1680    -6.6810 c3         1 1SO      -0.046400
     28 CAA          5.8750     6.0550    -5.6860 c3         1 1SO      -0.006600
     29 H1          -0.3610    -0.0360    -1.0210 hc         1 1SO       0.011367
     30 H2          -0.3610     0.9020     0.4800 hc         1 1SO       0.011367
     31 H3          -0.3610    -0.8660     0.5410 hc         1 1SO       0.011367
     32 H4           1.5070    -0.7500     2.0130 hc         1 1SO       0.011367
     33 H5           1.8750     0.9750     1.8830 hc         1 1SO       0.011367
     34 H6           3.1000    -0.2250     1.4490 hc         1 1SO       0.011367
     35 H7           1.6150    -1.9340    -0.2880 ho         1 1SO       0.381000
     36 H8           4.1950     0.9390    -0.7560 h4         1 1SO       0.178000
     37 H9           4.2320     4.5080    -2.2030 h1         1 1SO       0.049700
     38 H10          4.8950     1.8500    -3.5050 h1         1 1SO       0.084700
     39 H11          3.9060     4.2180    -4.9790 hn         1 1SO       0.178500
     40 H12          2.1380     2.9840    -6.7460 hc         1 1SO       0.018367
     41 H13          1.3600     3.9670    -5.4980 hc         1 1SO       0.018367
     42 H14          0.8810     2.2790    -5.7210 hc         1 1SO       0.018367
     43 H15          5.4180     3.3110    -0.1310 ha         1 1SO       0.151000
     44 H18          7.4010     1.8720    -3.2790 hc         1 1SO       0.048700
     45 H19          6.1670     4.5950    -3.8000 h1         1 1SO       0.024700
     46 H20          8.0210     4.5470    -5.1680 h1         1 1SO       0.028700
     47 H21          8.9190     3.9830    -7.4320 hc         1 1SO       0.014700
     48 H22          7.6420     2.7720    -7.6050 hc         1 1SO       0.014700
     49 H23          9.8860     1.8860    -6.7760 hc         1 1SO       0.008033
     50 H24          9.5920     2.7860    -5.2820 hc         1 1SO       0.008033
     51 H25          8.4920     1.4870    -5.7630 hc         1 1SO       0.008033
     52 H26          7.3230     5.7730    -7.2490 hc         1 1SO       0.014700
     53 H27          5.9190     4.7020    -7.3560 hc         1 1SO       0.014700
     54 H28          6.3310     5.9650    -4.7070 hc         1 1SO       0.008033
     55 H29          4.8400     5.7410    -5.6330 hc         1 1SO       0.008033
     56 H30          5.9240     7.0860    -6.0130 hc         1 1SO       0.008033
     57 H16          8.1940     3.4510    -3.1690 hc         1 1SO       0.048700
@<TRIPOS>BOND
     1     1     2 1   
     2     1    29 1   
     3     1    30 1   
     4     1    31 1   
     5     2     3 1   
     6     2     4 1   
     7     2     5 1   
     8     3    32 1   
     9     3    33 1   
    10     3    34 1   
    11     4    35 1   
    12     5     6 2   
    13     5     7 1   
    14     6     9 1   
    15     6    36 1   
    16     7     8 2   
    17     8     9 1   
    18     9    10 1   
    19    10    11 1   
    20    10    16 1   
    21    10    37 1   
    22    11    12 1   
    23    11    22 1   
    24    11    38 1   
    25    12    13 1   
    26    12    39 1   
    27    13    14 2   
    28    13    15 1   
    29    15    40 1   
    30    15    41 1   
    31    15    42 1   
    32    16    17 2   
    33    16    43 1   
    34    17    18 1   
    35    17    21 1   
    36    18    19 1   
    37    18    20 1   
    38    21    22 1   
    39    21    44 1   
    40    21    57 1   
    41    22    23 1   
    42    22    45 1   
    43    23    24 1   
    44    24    25 1   
    45    24    27 1   
    46    24    46 1   
    47    25    26 1   
    48    25    47 1   
    49    25    48 1   
    50    26    49 1   
    51    26    50 1   
    52    26    51 1   
    53    27    28 1   
    54    27    52 1   
    55    27    53 1   
    56    28    54 1   
    57    28    55 1   
    58    28    56 1   
@<TRIPOS>SUBSTRUCTURE
     1 1SO         1 TEMP              0 ****  ****    0 ROOT
