@<TRIPOS>MOLECULE
1SP
   19    18     1     0     0
SMALL
bcc


@<TRIPOS>ATOM
      1 C3          -0.0860    -0.0260     0.4780 c3         1 1SP      -0.108400
      2 O2          -0.3950    -2.2670    -0.4270 oh         1 1SP      -0.596800
      3 C4           1.3300     0.1140    -0.0380 c3         1 1SP      -0.081400
      4 C1          -1.8600    -1.5730     1.3690 c3         1 1SP       0.093400
      5 O1          -2.7800    -1.1270     0.3850 oh         1 1SP      -0.610800
      6 C5           2.3570     0.0440     1.0630 c3         1 1SP      -0.092100
      7 C2          -0.4600    -1.4800     0.7490 c3         1 1SP       0.144100
      8 HA           0.2840    -1.9570     1.4460 h1         1 1SP       0.075700
      9 H31C        -0.8060     0.3880    -0.2770 hc         1 1SP       0.050700
     10 H32C        -0.2120     0.5620     1.4240 hc         1 1SP       0.050700
     11 H11C        -1.9290    -0.9220     2.2800 h1         1 1SP       0.033200
     12 H12C        -2.0800    -2.6370     1.6490 h1         1 1SP       0.033200
     13 H41C         1.4270     1.0980    -0.5700 hc         1 1SP       0.047200
     14 H42C         1.5260    -0.6960    -0.7900 hc         1 1SP       0.047200
     15 H51C         2.3000    -0.9350     1.5970 hc         1 1SP       0.031367
     16 H52C         2.1960     0.8600     1.8080 hc         1 1SP       0.031367
     17 H53C         3.3850     0.1520     0.6390 hc         1 1SP       0.031367
     18 H1          -3.6630    -1.3120     0.7250 ho         1 1SP       0.406000
     19 H2          -1.0580    -1.9180    -1.0370 ho         1 1SP       0.413000
@<TRIPOS>BOND
     1     1     3 1   
     2     1     7 1   
     3     1     9 1   
     4     1    10 1   
     5     2     7 1   
     6     2    19 1   
     7     3     6 1   
     8     3    13 1   
     9     3    14 1   
    10     4     5 1   
    11     4     7 1   
    12     4    11 1   
    13     4    12 1   
    14     5    18 1   
    15     6    15 1   
    16     6    16 1   
    17     6    17 1   
    18     7     8 1   
@<TRIPOS>SUBSTRUCTURE
     1 1SP         1 TEMP              0 ****  ****    0 ROOT
