@<TRIPOS>MOLECULE
molecule
   19    18     1     0     0
SMALL
bcc


@<TRIPOS>ATOM
      1 C3           0.0000     0.0000     0.0000 c3         1 1SP      -0.083400
      2 O2          -0.1320     1.2210    -2.0810 oh         1 1SP      -0.602800
      3 C4           1.5290     0.0000     0.0000 c3         1 1SP      -0.082400
      4 C1          -2.0350    -0.1250    -1.4450 c3         1 1SP       0.118400
      5 O1          -2.5020    -0.2430    -2.7900 oh         1 1SP      -0.614800
      6 C5           2.0390     0.0000     1.4430 c3         1 1SP      -0.092100
      7 C2          -0.5100     0.0000    -1.4430 c3         1 1SP       0.151100
      8 HA          -0.0780    -0.8370    -1.9780 h1         1 1SP       0.041700
      9 H31C        -0.3610    -0.8850     0.5110 hc         1 1SP       0.051200
     10 H32C        -0.3610     0.8850     0.5110 hc         1 1SP       0.051200
     11 H11C        -2.5300     0.7090    -0.9620 h1         1 1SP       0.027700
     12 H12C        -2.2570    -1.0380    -0.9050 h1         1 1SP       0.027700
     13 H41C         1.8910     0.8850    -0.5110 hc         1 1SP       0.046200
     14 H42C         1.8910    -0.8850    -0.5110 hc         1 1SP       0.046200
     15 H51C         3.1210     0.0610     1.4430 hc         1 1SP       0.033367
     16 H52C         1.6290     0.8530     1.9700 hc         1 1SP       0.033367
     17 H53C         1.7290    -0.9130     1.9350 hc         1 1SP       0.033367
     18 H1          -3.4280    -0.4160    -2.7880 ho         1 1SP       0.404000
     19 H2           0.1070     1.0470    -2.9770 ho         1 1SP       0.409000
@<TRIPOS>BOND
     1     2     7 1   
     2     7     1 1   
     3     7     4 1   
     4     1     3 1   
     5     3     6 1   
     6     4     5 1   
     7     2    19 1   
     8     7     8 1   
     9     1     9 1   
    10     1    10 1   
    11     4    11 1   
    12     4    12 1   
    13     3    13 1   
    14     3    14 1   
    15     6    15 1   
    16     6    16 1   
    17     6    17 1   
    18     5    18 1   
@<TRIPOS>SUBSTRUCTURE
     1 1SP         1 TEMP              0 ****  ****    0 ROOT
