@<TRIPOS>MOLECULE
1SP
   19    18     1     0     0
SMALL
bcc


@<TRIPOS>ATOM
      1 C3          0.0320    0.0270   -0.0120 c3        1 1SP     -0.076400
      2 O2         -0.1240    1.2240   -2.0570 oh        1 1SP     -0.601800
      3 C4          1.5410   -0.0630    0.0450 c3        1 1SP     -0.079400
      4 C1         -1.9900   -0.2110   -1.4780 c3        1 1SP      0.090400
      5 O1         -2.3660   -0.2100   -2.8460 oh        1 1SP     -0.612800
      6 C5          2.0450    0.0300    1.4620 c3        1 1SP     -0.092100
      7 C2         -0.4700   -0.0130   -1.4510 c3        1 1SP      0.144100
      8 HA          0.0210   -0.8520   -2.0190 h1        1 1SP      0.045700
      9 H31C       -0.4250   -0.8280    0.5520 hc        1 1SP      0.048700
     10 H32C       -0.3080    0.9820    0.4680 hc        1 1SP      0.048700
     11 H11C       -2.5010    0.6260   -0.9340 h1        1 1SP      0.034200
     12 H12C       -2.2650   -1.1910   -1.0050 h1        1 1SP      0.034200
     13 H41C        1.8770   -1.0300   -0.4130 hc        1 1SP      0.048200
     14 H42C        1.9770    0.7670   -0.5730 hc        1 1SP      0.048200
     15 H51C        1.6250   -0.7960    2.0860 hc        1 1SP      0.032033
     16 H52C        3.1590   -0.0450    1.4810 hc        1 1SP      0.032033
     17 H53C        1.7490    1.0030    1.9230 hc        1 1SP      0.032033
     18 H1         -3.3290   -0.2280   -2.8720 ho        1 1SP      0.407000
     19 H2         -0.5210    1.2170   -2.9390 ho        1 1SP      0.416000
@<TRIPOS>BOND
     1    1    3 1   
     2    1    7 1   
     3    1    9 1   
     4    1   10 1   
     5    2    7 1   
     6    2   19 1   
     7    3    6 1   
     8    3   13 1   
     9    3   14 1   
    10    4    5 1   
    11    4    7 1   
    12    4   11 1   
    13    4   12 1   
    14    5   18 1   
    15    6   15 1   
    16    6   16 1   
    17    6   17 1   
    18    7    8 1   
@<TRIPOS>SUBSTRUCTURE
     1 1SP         1 TEMP              0 ****  ****    0 ROOT
