@<TRIPOS>MOLECULE
1SQ
   19    20     1     0     0
SMALL
bcc


@<TRIPOS>ATOM
      1 N1          -0.0760    -0.1780     0.0180 nv         1 1SQ      -0.927500
      2 C2           1.3220    -0.1000     0.0280 ca         1 1SQ       0.653200
      3 N3           1.9640    -0.1160     1.2180 nb         1 1SQ      -0.744000
      4 C4           3.3230    -0.1360     1.2170 ca         1 1SQ       0.431200
      5 C5           4.1060    -0.1110     0.0790 ca         1 1SQ      -0.283300
      6 C6           3.4630    -0.0760    -1.1870 ca         1 1SQ       0.016000
      7 C7           4.2070    -0.0450    -2.3980 ca         1 1SQ      -0.133000
      8 C8           3.5640    -0.0230    -3.6110 ca         1 1SQ      -0.106000
      9 C9           2.1520    -0.0340    -3.6660 ca         1 1SQ      -0.145000
     10 C10          1.4090    -0.0620    -2.5090 ca         1 1SQ      -0.095000
     11 C11          2.0450    -0.0750    -1.2410 ca         1 1SQ      -0.178300
     12 HN11        -0.5260    -0.0670     0.9010 hn         1 1SQ       0.406800
     13 HN12        -0.5120     0.3220    -0.7230 hn         1 1SQ       0.406800
     14 H4           3.7730    -0.1630     2.2270 h4         1 1SQ       0.020100
     15 H5           5.2010    -0.1180     0.1360 ha         1 1SQ       0.143000
     16 H7           5.3060    -0.0420    -2.3380 ha         1 1SQ       0.137000
     17 H8           4.1370     0.0010    -4.5500 ha         1 1SQ       0.134000
     18 H9           1.6550    -0.0250    -4.6470 ha         1 1SQ       0.134000
     19 H10          0.3110    -0.0870    -2.5830 ha         1 1SQ       0.130000
@<TRIPOS>BOND
     1     1     2 1   
     2     1    12 1   
     3     1    13 1   
     4     2     3 ar  
     5     2    11 ar  
     6     3     4 ar  
     7     4     5 ar  
     8     4    14 1   
     9     5     6 ar  
    10     5    15 1   
    11     6     7 ar  
    12     6    11 ar  
    13     7     8 ar  
    14     7    16 1   
    15     8     9 ar  
    16     8    17 1   
    17     9    10 ar  
    18     9    18 1   
    19    10    11 ar  
    20    10    19 1   
@<TRIPOS>SUBSTRUCTURE
     1 1SQ         1 TEMP              0 ****  ****    0 ROOT
