@<TRIPOS>MOLECULE
molecule
   19    20     1     0     0
SMALL
bcc


@<TRIPOS>ATOM
      1 N1           0.0000     0.0000     0.0000 nv         1 1SQ      -1.096500
      2 C2           1.4190     0.0000     0.0000 ca         1 1SQ       0.674200
      3 N3           2.0200     0.0000     1.2110 nb         1 1SQ      -0.675000
      4 C4           3.3700    -0.0010     1.2120 ca         1 1SQ       0.399200
      5 C5           4.1500     0.0010     0.0650 ca         1 1SQ      -0.248300
      6 C6           3.5090     0.0020    -1.1780 ca         1 1SQ      -0.004000
      7 C7           4.2270     0.0030    -2.3840 ca         1 1SQ      -0.134000
      8 C8           3.5580     0.0040    -3.6100 ca         1 1SQ      -0.106000
      9 C9           2.1660     0.0030    -3.6460 ca         1 1SQ      -0.141000
     10 C10          1.4360     0.0020    -2.4580 ca         1 1SQ      -0.086000
     11 C11          2.0990     0.0010    -1.2190 ca         1 1SQ      -0.156300
     12 HN11        -0.5000    -0.8670     0.0210 hn         1 1SQ       0.435800
     13 HN12        -0.5000     0.8670     0.0220 hn         1 1SQ       0.435800
     14 H4           3.8760    -0.0010     2.1700 h4         1 1SQ       0.017100
     15 H5           5.2320     0.0010     0.1310 ha         1 1SQ       0.142000
     16 H7           5.3100     0.0030    -2.3640 ha         1 1SQ       0.134000
     17 H8           4.1230     0.0050    -4.5340 ha         1 1SQ       0.133000
     18 H9           1.6490     0.0050    -4.5980 ha         1 1SQ       0.134000
     19 H10          0.3530     0.0010    -2.4900 ha         1 1SQ       0.143000
@<TRIPOS>BOND
     1     1     2 1   
     2     1    12 1   
     3     1    13 1   
     4     2     3 ar  
     5     2    11 ar  
     6     3     4 ar  
     7     4     5 ar  
     8     4    14 1   
     9     5     6 ar  
    10     5    15 1   
    11     6    11 ar  
    12     6     7 ar  
    13     7     8 ar  
    14     7    16 1   
    15     8     9 ar  
    16     8    17 1   
    17     9    10 ar  
    18     9    18 1   
    19    10    11 ar  
    20    10    19 1   
@<TRIPOS>SUBSTRUCTURE
     1 1SQ         1 TEMP              0 ****  ****    0 ROOT
