@<TRIPOS>MOLECULE
1SS
   41    42     1     0     0
SMALL
bcc


@<TRIPOS>ATOM
      1 C1           0.0000     0.0000     0.0000 c3         1 1SS      -0.015200
      2 C2           1.5310     0.0000     0.0000 c3         1 1SS      -0.040400
      3 C3           2.0360     0.0000     1.4450 c3         1 1SS      -0.034400
      4 C4           1.4560     1.2130     2.1780 c3         1 1SS      -0.069000
      5 C5          -0.0710     1.1660     2.0990 c3         1 1SS      -0.044500
      6 C6           1.8920     1.1780     3.6440 c3         1 1SS      -0.037400
      7 C7           1.3070     2.3850     4.3800 c3         1 1SS      -0.040400
      8 C8          -0.2210     2.3390     4.3000 c3         1 1SS       0.026500
      9 C9          -0.6560     2.3740     2.8340 c3         1 1SS      -0.049400
     10 C10         -1.9600     1.2310     0.6250 c3         1 1SS       0.003100
     11 C11          1.9630     2.4980     1.5220 c3         1 1SS      -0.030100
     12 C12         -0.7190     1.0700     4.9420 c2         1 1SS      -0.183400
     13 C13         -2.1410     0.6230     4.7210 c3         1 1SS       0.059100
     14 C14          0.0840     0.3570     5.6930 c2         1 1SS      -0.154000
     15 N1          -0.4920     1.1960     0.6940 nx         1 1SS       0.026600
     16 H1          -0.3590    -0.8850     0.5110 hx         1 1SS       0.075700
     17 H2          -0.3590     0.0040    -1.0220 hx         1 1SS       0.075700
     18 H3           1.8910    -0.8860    -0.5080 hc         1 1SS       0.053700
     19 H4           1.8910     0.8860    -0.5080 hc         1 1SS       0.053700
     20 H5           1.7150    -0.9090     1.9400 hc         1 1SS       0.049200
     21 H6           3.1180     0.0590     1.4490 hc         1 1SS       0.049200
     22 H7          -0.4280     0.2550     2.5630 hx         1 1SS       0.101700
     23 H8           1.5310     0.2660     4.1040 hc         1 1SS       0.047700
     24 H9           2.9730     1.2120     3.6990 hc         1 1SS       0.047700
     25 H10          1.6140     2.3570     5.4180 hc         1 1SS       0.041700
     26 H11          1.6640     3.2970     3.9160 hc         1 1SS       0.041700
     27 H12         -0.6330     3.1970     4.8180 hc         1 1SS       0.057700
     28 H13         -1.7370     2.3400     2.7790 hc         1 1SS       0.040700
     29 H14         -0.2950     3.2860     2.3730 hc         1 1SS       0.040700
     30 H15         -2.3120     2.2120     0.9180 hx         1 1SS       0.072367
     31 H16         -2.2790     1.0210    -0.3890 hx         1 1SS       0.072367
     32 H17         -2.3700     0.4840     1.2940 hx         1 1SS       0.072367
     33 H18          3.0370     2.5690     1.6490 hc         1 1SS       0.026367
     34 H19          1.7250     2.4820     0.4650 hc         1 1SS       0.026367
     35 H20          1.4880     3.3530     1.9870 hc         1 1SS       0.026367
     36 H21         -2.5830     0.3420     5.6700 hc         1 1SS       0.009700
     37 H22         -2.1520    -0.2290     4.0520 hc         1 1SS       0.009700
     38 H23         -2.7110     1.4330     4.2830 hc         1 1SS       0.009700
     39 H24          1.1060     0.6800     5.8510 ha         1 1SS       0.106500
     40 H25         -0.2740    -0.5550     6.1550 ha         1 1SS       0.106500
     41 H26         -0.1160     2.0120     0.2530 hn         1 1SS       0.265800
@<TRIPOS>BOND
     1     1     2 1   
     2     1    15 1   
     3     1    16 1   
     4     1    17 1   
     5     2     3 1   
     6     2    18 1   
     7     2    19 1   
     8     3     4 1   
     9     3    20 1   
    10     3    21 1   
    11     4     5 1   
    12     4     6 1   
    13     4    11 1   
    14     5     9 1   
    15     5    15 1   
    16     5    22 1   
    17     6     7 1   
    18     6    23 1   
    19     6    24 1   
    20     7     8 1   
    21     7    25 1   
    22     7    26 1   
    23     8     9 1   
    24     8    12 1   
    25     8    27 1   
    26     9    28 1   
    27     9    29 1   
    28    10    15 1   
    29    10    30 1   
    30    10    31 1   
    31    10    32 1   
    32    11    33 1   
    33    11    34 1   
    34    11    35 1   
    35    12    13 1   
    36    12    14 2   
    37    13    36 1   
    38    13    37 1   
    39    13    38 1   
    40    14    39 1   
    41    14    40 1   
    42    15    41 1   
@<TRIPOS>SUBSTRUCTURE
     1 1SS         1 TEMP              0 ****  ****    0 ROOT
