@<TRIPOS>MOLECULE
1SS
   41    42     1     0     0
SMALL
bcc


@<TRIPOS>ATOM
      1 C1          -0.0460    -0.0140    -0.0010 c3         1 1SS       0.114800
      2 C2           1.4710    -0.1180     0.0350 c3         1 1SS      -0.105400
      3 C3           2.0090     0.0030     1.4420 c3         1 1SS      -0.095400
      4 C4           1.4890     1.2470     2.1670 c3         1 1SS      -0.059000
      5 C5          -0.0610     1.2280     2.1320 c3         1 1SS       0.132500
      6 C6           1.9040     1.1600     3.6400 c3         1 1SS      -0.072400
      7 C7           1.2980     2.2600     4.4810 c3         1 1SS      -0.083400
      8 C8          -0.2250     2.2740     4.4130 c3         1 1SS      -0.025500
      9 C9          -0.6650     2.3690     2.9540 c3         1 1SS      -0.094400
     10 C10         -2.0360     1.2720     0.6100 c3         1 1SS       0.084100
     11 C11          2.0800     2.4960     1.5350 c3         1 1SS      -0.108100
     12 C12         -0.8560     1.1520     5.1800 c2         1 1SS      -0.104400
     13 C13         -0.3520     0.9750     6.5690 c3         1 1SS      -0.070900
     14 C14         -1.8450     0.3790     4.7190 c2         1 1SS      -0.238000
     15 N1          -0.5570     1.2120     0.6990 nx         1 1SS      -0.682400
     16 H1          -0.5080    -0.9100     0.5050 hx         1 1SS       0.098700
     17 H2          -0.4050     0.0230    -1.0690 hx         1 1SS       0.098700
     18 H3           1.7500    -1.1190    -0.3930 hc         1 1SS       0.085700
     19 H4           1.9290     0.6620    -0.6300 hc         1 1SS       0.085700
     20 H5           3.1310     0.0450     1.4070 hc         1 1SS       0.076700
     21 H6           1.7290    -0.9120     2.0300 hc         1 1SS       0.076700
     22 H7          -0.4040     0.2480     2.5900 hx         1 1SS       0.109700
     23 H8           1.5920     0.1640     4.0540 hc         1 1SS       0.066200
     24 H9           3.0230     1.2160     3.6980 hc         1 1SS       0.066200
     25 H10          1.6310     2.1340     5.5460 hc         1 1SS       0.066200
     26 H11          1.6820     3.2570     4.1360 hc         1 1SS       0.066200
     27 H12         -0.5780     3.2260     4.9160 hc         1 1SS       0.085700
     28 H13         -1.7860     2.3400     2.9170 hc         1 1SS       0.063700
     29 H14         -0.3380     3.3600     2.5420 hc         1 1SS       0.063700
     30 H15         -2.3580     1.0460    -0.4420 hx         1 1SS       0.102033
     31 H16         -2.3890     2.3010     0.8880 hx         1 1SS       0.102033
     32 H17         -2.4870     0.5180     1.3090 hx         1 1SS       0.102033
     33 H18          1.6460     3.4240     1.9800 hc         1 1SS       0.052700
     34 H19          3.1840     2.5150     1.7150 hc         1 1SS       0.052700
     35 H20          1.9190     2.5210     0.4310 hc         1 1SS       0.052700
     36 H21         -0.1800     1.9660     7.0570 hc         1 1SS       0.055367
     37 H22         -1.0810     0.4000     7.1910 hc         1 1SS       0.055367
     38 H23          0.6160     0.4120     6.5570 hc         1 1SS       0.055367
     39 H24         -2.3050    -0.4010     5.3420 ha         1 1SS       0.111500
     40 H25         -2.2820     0.4690     3.7170 ha         1 1SS       0.111500
     41 H26         -0.1640     2.0380     0.2290 hn         1 1SS       0.445800
@<TRIPOS>BOND
     1     1     2 1   
     2     1    15 1   
     3     1    16 1   
     4     1    17 1   
     5     2     3 1   
     6     2    18 1   
     7     2    19 1   
     8     3     4 1   
     9     3    20 1   
    10     3    21 1   
    11     4     5 1   
    12     4     6 1   
    13     4    11 1   
    14     5     9 1   
    15     5    15 1   
    16     5    22 1   
    17     6     7 1   
    18     6    23 1   
    19     6    24 1   
    20     7     8 1   
    21     7    25 1   
    22     7    26 1   
    23     8     9 1   
    24     8    12 1   
    25     8    27 1   
    26     9    28 1   
    27     9    29 1   
    28    10    15 1   
    29    10    30 1   
    30    10    31 1   
    31    10    32 1   
    32    11    33 1   
    33    11    34 1   
    34    11    35 1   
    35    12    13 1   
    36    12    14 2   
    37    13    36 1   
    38    13    37 1   
    39    13    38 1   
    40    14    39 1   
    41    14    40 1   
    42    15    41 1   
@<TRIPOS>SUBSTRUCTURE
     1 1SS         1 TEMP              0 ****  ****    0 ROOT
