@<TRIPOS>MOLECULE
1ST
   61    68     1     0     0
SMALL
bcc


@<TRIPOS>ATOM
      1 C1          -0.1170     0.1790     0.0310 ca         1 1ST      -0.063000
      2 C2           1.2730     0.0420     0.0290 ca         1 1ST      -0.139000
      3 C3           1.9570    -0.2940     1.1960 ca         1 1ST      -0.090000
      4 C4           1.2870    -0.4930     2.4060 ca         1 1ST      -0.168000
      5 C5          -0.0990    -0.3280     2.4370 ca         1 1ST      -0.009200
      6 N6          -1.0270    -0.5460     3.5010 na         1 1ST      -0.088300
      7 C7          -2.3160    -0.2790     2.9630 ca         1 1ST      -0.018200
      8 C8          -3.5540    -0.3240     3.5800 ca         1 1ST      -0.025200
      9 N9          -3.8750    -0.6540     4.9200 na         1 1ST      -0.083300
     10 C10         -5.2770    -0.4090     5.0670 ca         1 1ST      -0.064200
     11 C11         -6.0750    -0.5110     6.2050 ca         1 1ST      -0.123000
     12 C12         -7.4480    -0.3110     6.0750 ca         1 1ST      -0.122000
     13 C13         -8.0120    -0.0180     4.8200 ca         1 1ST       0.122100
     14 C14         -7.2240     0.0920     3.6600 ca         1 1ST      -0.142000
     15 C15         -5.8590    -0.0960     3.7850 cp         1 1ST      -0.033000
     16 C16         -4.7680    -0.0370     2.8230 cp         1 1ST       0.040000
     17 C17         -4.6600     0.2320     1.4860 ca         1 1ST      -0.155600
     18 C18         -5.6730     0.5470     0.4070 c          1 1ST       0.692100
     19 N19         -4.9290     0.7470    -0.8460 nc         1 1ST      -0.580100
     20 C20         -3.6600     0.5860    -0.5900 cd         1 1ST       0.514800
     21 C21         -3.3780     0.2610     0.8400 ca         1 1ST      -0.177900
     22 C22         -2.2250     0.0260     1.5420 cp         1 1ST       0.015000
     23 C23         -0.8080    -0.0070     1.2180 cp         1 1ST      -0.072000
     24 C24         -0.7220    -0.3030     4.9020 c3         1 1ST       0.263500
     25 C25         -0.3340    -1.6400     5.6630 c3         1 1ST       0.107100
     26 C26         -1.0650    -1.6240     7.0330 c3         1 1ST       0.118500
     27 C27         -2.5690    -1.6390     6.7840 c3         1 1ST      -0.132400
     28 C28         -2.9550    -0.3570     5.9990 c3         1 1ST       0.259800
     29 O29         -1.7970     0.3650     5.5900 os         1 1ST      -0.413600
     30 O30         -6.8900     0.6260     0.5330 o          1 1ST      -0.463100
     31 N31         -0.6120    -2.7440     7.9370 ny         1 1ST      -0.748000
     32 C32         -1.2810    -4.0440     7.7000 c3         1 1ST       0.071100
     33 O33         -0.7330    -2.8470     5.0370 os         1 1ST      -0.422600
     34 C34          0.2260    -3.4170     4.1510 c3         1 1ST       0.105700
     35 C35          0.4330     0.7070     5.1380 c3         1 1ST      -0.115100
     36 O36         -9.3740     0.1530     4.8010 oh         1 1ST      -0.487100
     37 H1          -0.6560     0.4260    -0.8960 ha         1 1ST       0.148000
     38 H2           1.8320     0.1960    -0.9070 ha         1 1ST       0.153000
     39 H3           3.0520    -0.4090     1.1690 ha         1 1ST       0.146000
     40 H4           1.8590    -0.7820     3.2970 ha         1 1ST       0.126000
     41 H11         -5.6430    -0.7440     7.1880 ha         1 1ST       0.127000
     42 H12         -8.1080    -0.3800     6.9530 ha         1 1ST       0.162000
     43 H14         -7.6750     0.3210     2.6790 ha         1 1ST       0.181000
     44 H20         -2.8760     0.6800    -1.3530 h4         1 1ST       0.055800
     45 H25          0.7830    -1.6320     5.8100 h1         1 1ST       0.059700
     46 H26         -0.7730    -0.6620     7.5610 hx         1 1ST       0.115700
     47 H271        -2.8490    -2.5570     6.1970 hc         1 1ST       0.092200
     48 H272        -3.1420    -1.6440     7.7460 hc         1 1ST       0.092200
     49 H28         -3.4410     0.3780     6.7240 h2         1 1ST       0.102700
     50 HN31        -0.7830    -2.4570     8.9080 hn         1 1ST       0.448800
     51 H321        -1.2020    -4.3160     6.6090 hx         1 1ST       0.115367
     52 H322        -2.3650    -3.9690     7.9830 hx         1 1ST       0.115367
     53 H323        -0.7810    -4.8290     8.3290 hx         1 1ST       0.115367
     54 H341         1.1250    -3.7470     4.7290 h1         1 1ST       0.058700
     55 H342         0.5210    -2.7050     3.3440 h1         1 1ST       0.058700
     56 H343        -0.3160    -4.2960     3.7140 h1         1 1ST       0.058700
     57 H351         1.4210     0.2560     4.8940 hc         1 1ST       0.069700
     58 H352         0.2770     1.6170     4.5080 hc         1 1ST       0.069700
     59 H353         0.4220     1.0160     6.2110 hc         1 1ST       0.069700
     60 HO36        -9.6440     0.3550     3.8920 ho         1 1ST       0.435000
     61 H312         0.3990    -2.8640     7.8060 hn         1 1ST       0.448800
@<TRIPOS>BOND
     1     1     2 ar  
     2     1    23 ar  
     3     1    37 1   
     4     2     3 ar  
     5     2    38 1   
     6     3     4 ar  
     7     3    39 1   
     8     4     5 ar  
     9     4    40 1   
    10     5     6 1   
    11     5    23 ar  
    12     6     7 1   
    13     6    24 1   
    14     7     8 ar  
    15     7    22 ar  
    16     8     9 1   
    17     8    16 ar  
    18     9    10 1   
    19     9    28 1   
    20    10    11 ar  
    21    10    15 ar  
    22    11    12 ar  
    23    11    41 1   
    24    12    13 ar  
    25    12    42 1   
    26    13    14 ar  
    27    13    36 1   
    28    14    15 ar  
    29    14    43 1   
    30    15    16 1   
    31    16    17 ar  
    32    17    18 1   
    33    17    21 ar  
    34    18    19 1   
    35    18    30 2   
    36    19    20 2   
    37    20    21 1   
    38    20    44 1   
    39    21    22 ar  
    40    22    23 1   
    41    24    25 1   
    42    24    29 1   
    43    24    35 1   
    44    25    26 1   
    45    25    33 1   
    46    25    45 1   
    47    26    27 1   
    48    26    31 1   
    49    26    46 1   
    50    27    28 1   
    51    27    47 1   
    52    27    48 1   
    53    28    29 1   
    54    28    49 1   
    55    31    32 1   
    56    31    50 1   
    57    31    61 1   
    58    32    51 1   
    59    32    52 1   
    60    32    53 1   
    61    33    34 1   
    62    34    54 1   
    63    34    55 1   
    64    34    56 1   
    65    35    57 1   
    66    35    58 1   
    67    35    59 1   
    68    36    60 1   
@<TRIPOS>SUBSTRUCTURE
     1 1ST         1 TEMP              0 ****  ****    0 ROOT
