@<TRIPOS>MOLECULE
molecule
   60    67     1     0     0
SMALL
bcc


@<TRIPOS>ATOM
      1 C1           0.0000     0.0000     0.0000 ca         1 1ST      -0.084000
      2 C2           1.3930     0.0000     0.0000 ca         1 1ST      -0.156000
      3 C3           2.0820     0.0000     1.1970 ca         1 1ST      -0.104000
      4 C4           1.3970     0.0140     2.4150 ca         1 1ST      -0.146000
      5 C5          -0.0160     0.0320     2.4500 ca         1 1ST       0.004800
      6 N6          -0.9090     0.0830     3.5440 na         1 1ST      -0.077300
      7 C7          -2.1190    -0.0180     2.8890 ca         1 1ST       0.005800
      8 C8          -3.3970    -0.1700     3.5140 ca         1 1ST       0.004800
      9 N9          -3.5890    -0.2520     4.8610 na         1 1ST      -0.080300
     10 C10         -4.9670    -0.4720     4.9480 ca         1 1ST      -0.027200
     11 C11         -5.7620    -0.6500     6.1000 ca         1 1ST      -0.161000
     12 C12         -7.1350    -0.8470     5.9660 ca         1 1ST      -0.117000
     13 C13         -7.7250    -0.8680     4.7130 ca         1 1ST       0.070100
     14 C14         -6.9520    -0.6940     3.5630 ca         1 1ST      -0.091000
     15 C15         -5.5510    -0.4880     3.6470 cp         1 1ST      -0.072000
     16 C16         -4.5340    -0.2930     2.6130 cp         1 1ST       0.006000
     17 C17         -4.5130    -0.2410     1.2290 ca         1 1ST      -0.155600
     18 C18         -5.4840    -0.3380     0.1510 c          1 1ST       0.704100
     19 N19         -4.7940    -0.2670    -1.0560 nc         1 1ST      -0.628100
     20 C20         -3.5300    -0.1410    -0.7780 cd         1 1ST       0.550800
     21 C21         -3.2900    -0.1140     0.6350 ca         1 1ST      -0.196900
     22 C22         -2.1680    -0.0390     1.4410 cp         1 1ST      -0.007000
     23 C23         -0.7350     0.0080     1.2140 cp         1 1ST      -0.092000
     24 C24         -0.5680     0.3460     4.9430 c3         1 1ST       0.319500
     25 C25         -0.0070    -0.8660     5.7380 c3         1 1ST       0.123100
     26 C26         -1.0300    -1.9540     6.0780 c3         1 1ST       0.142500
     27 C27         -2.2430    -1.2840     6.7140 c3         1 1ST      -0.116400
     28 C28         -2.7190    -0.0250     5.9840 c3         1 1ST       0.290800
     29 O29         -1.7120     0.8870     5.6090 os         1 1ST      -0.387600
     30 O30         -6.6860    -0.4570     0.3050 o          1 1ST      -0.474100
     31 N31         -1.3900    -2.7910     4.9340 n7         1 1ST      -0.801200
     32 C32         -2.2970    -3.8540     5.3390 c3         1 1ST       0.143100
     33 O33          1.1470    -1.4480     5.1470 os         1 1ST      -0.404600
     34 C34          1.7690    -2.3810     6.0220 c3         1 1ST       0.120700
     35 C35          0.4190     1.5340     5.0630 c3         1 1ST      -0.099100
     36 O36         -9.0680    -1.0630     4.5980 oh         1 1ST      -0.517100
     37 H1          -0.5320    -0.0000    -0.9440 ha         1 1ST       0.129000
     38 H2           1.9350    -0.0110    -0.9380 ha         1 1ST       0.133000
     39 H3           3.1650    -0.0000     1.1920 ha         1 1ST       0.131000
     40 H4           1.9550     0.0130     3.3440 ha         1 1ST       0.140000
     41 H11         -5.3070    -0.6340     7.0830 ha         1 1ST       0.127000
     42 H12         -7.7460    -0.9840     6.8500 ha         1 1ST       0.141000
     43 H14         -7.4300    -0.7130     2.5910 ha         1 1ST       0.169000
     44 H20         -2.8800     0.4090    -1.4490 h4         1 1ST       0.047800
     45 H25          0.3160    -0.4630     6.6900 h1         1 1ST       0.044700
     46 H26         -0.5840    -2.5960     6.8280 h1         1 1ST       0.023700
     47 H271        -1.9910    -1.0150     7.7320 hc         1 1ST       0.072200
     48 H272        -3.0580    -1.9980     6.7320 hc         1 1ST       0.072200
     49 H28         -3.3250     0.5040     6.7100 h2         1 1ST       0.082700
     50 HN31        -0.5610    -3.1910     4.5400 hn         1 1ST       0.371800
     51 H321        -2.1200    -4.7320     4.7290 h1         1 1ST       0.035367
     52 H322        -3.3210    -3.5240     5.2080 h1         1 1ST       0.035367
     53 H323        -2.1260    -4.0970     6.3810 h1         1 1ST       0.035367
     54 H341         1.5810    -2.0930     7.0490 h1         1 1ST       0.036033
     55 H342         2.8360    -2.3910     5.8390 h1         1 1ST       0.036033
     56 H343         1.3620    -3.3690     5.8440 h1         1 1ST       0.036033
     57 H351         0.1850     2.2760     4.3100 hc         1 1ST       0.064367
     58 H352         0.3310     1.9780     6.0470 hc         1 1ST       0.064367
     59 H353         1.4320     1.1780     4.9170 hc         1 1ST       0.064367
     60 HO36        -9.5060    -0.2290     4.5740 ho         1 1ST       0.416000
@<TRIPOS>BOND
     1     1     2 ar
     2     1    23 ar
     3     1    37 1
     4     2     3 ar
     5     2    38 1
     6     3     4 ar
     7     3    39 1
     8     4     5 ar
     9     4    40 1
    10     5    23 ar
    11     5     6 1
    12     6     7 1
    13     6    24 1
    14     7    22 ar
    15     7     8 ar
    16     8    16 ar
    17     8     9 1
    18     9    10 1
    19     9    28 1
    20    10    15 ar
    21    10    11 ar
    22    11    12 ar
    23    11    41 1
    24    12    13 ar
    25    12    42 1
    26    13    14 ar
    27    13    36 1
    28    14    15 ar
    29    14    43 1
    30    15    16 1
    31    16    17 ar
    32    17    18 1
    33    17    21 ar
    34    18    19 1
    35    18    30 2
    36    19    20 2
    37    20    21 1
    38    20    44 1
    39    21    22 ar
    40    22    23 1
    41    24    25 1
    42    24    29 1
    43    24    35 1
    44    25    33 1
    45    25    26 1
    46    25    45 1
    47    26    27 1
    48    26    31 1
    49    26    46 1
    50    27    28 1
    51    27    47 1
    52    27    48 1
    53    28    29 1
    54    28    49 1
    55    31    32 1
    56    31    50 1
    57    32    51 1
    58    32    52 1
    59    32    53 1
    60    33    34 1
    61    34    54 1
    62    34    55 1
    63    34    56 1
    64    35    57 1
    65    35    58 1
    66    35    59 1
    67    36    60 1
@<TRIPOS>SUBSTRUCTURE
     1 1ST         1 TEMP              0 ****  ****    0 ROOT
