@<TRIPOS>MOLECULE
1SU
   59    63     1     0     0
SMALL
bcc


@<TRIPOS>ATOM
      1 C4          0.6310   -2.2090    0.6460 ca        1 1SU     -0.040000
      2 C5          1.8490   -7.2720    9.0250 ca        1 1SU     -0.001000
      3 C6          1.8530   -6.0070    8.4800 ca        1 1SU     -0.165000
      4 C7          3.0180   -4.3210    6.1910 ca        1 1SU     -0.109000
      5 C8          4.0650   -3.5810    5.6590 ca        1 1SU     -0.099000
      6 C10         1.7550   -2.2650    6.6030 ca        1 1SU     -0.094000
      7 C13         1.6500   -2.6810    1.4770 ca        1 1SU     -0.164300
      8 C15         2.8080   -1.5190    6.0520 ca        1 1SU     -0.060400
      9 C17         0.8430   -5.6120    7.5710 ca        1 1SU      0.166100
     10 C20        -0.4060  -10.0290    8.5860 cc        1 1SU      0.309100
     11 C21        -1.3410  -11.5340   10.3620 c         1 1SU      0.599100
     12 C22         1.8630    0.4030    4.7780 c         1 1SU      0.561100
     13 C24        -2.3920  -13.2850   11.8990 cx        1 1SU     -0.058400
     14 C26         2.5550    0.4160    3.4400 c3        1 1SU     -0.081100
     15 C2          0.2330   -0.8740    0.7410 ca        1 1SU     -0.115000
     16 C3          0.8420   -0.0200    1.6590 ca        1 1SU     -0.063000
     17 C9          2.2770   -1.8300    2.3870 ca        1 1SU     -0.073000
     18 C11        -0.1820   -6.4810    7.1760 ca        1 1SU      0.037000
     19 C12         1.8660   -0.4970    2.4880 ca        1 1SU     -0.144300
     20 C14         0.8190   -8.1770    8.6600 ca        1 1SU      0.071400
     21 C16         1.8730   -3.6620    6.6590 ca        1 1SU      0.124100
     22 C18         3.9740   -2.1800    5.5770 ca        1 1SU      0.130900
     23 C19        -0.2050   -7.7730    7.7320 ca        1 1SU     -0.066100
     24 C23        -0.9640  -13.1630   12.2980 cx        1 1SU     -0.058400
     25 C25        -1.3540  -12.9210   10.8450 cx        1 1SU     -0.293700
     26 C27         2.0860   -4.1420    1.4170 c3        1 1SU      0.689200
     27 N28        -1.9940   -5.7180    5.5020 n1        1 1SU     -0.268800
     28 N29         0.6850   -9.4730    9.1400 nd        1 1SU     -0.451100
     29 N30         2.7050   -0.0630    5.9790 n4        1 1SU     -0.557200
     30 N31        -0.8130  -11.3850    8.9150 n4        1 1SU     -0.601800
     31 O32        -1.6820  -10.5030   10.9110 o         1 1SU     -0.387100
     32 O33         0.7320    0.7400    5.0730 o         1 1SU     -0.389100
     33 O34         0.7310   -4.2990    7.1270 os        1 1SU     -0.221200
     34 F35         4.9900   -1.4610    5.0470 f         1 1SU     -0.112900
     35 F36         1.7470   -4.8020    0.2670 f         1 1SU     -0.230633
     36 F37         3.4420   -4.3290    1.5470 f         1 1SU     -0.230633
     37 F38         1.5550   -4.9120    2.4270 f         1 1SU     -0.230633
     38 S39        -1.2970   -9.0240    7.4970 ss        1 1SU      0.214900
     39 H1          0.1520   -2.8860   -0.0820 ha        1 1SU      0.177000
     40 H2          2.6250   -7.5860    9.7450 ha        1 1SU      0.188000
     41 H3          2.6310   -5.2800    8.7640 ha        1 1SU      0.172000
     42 H4          3.0860   -5.4220    6.2330 ha        1 1SU      0.181000
     43 H5          4.9770   -4.0810    5.2840 ha        1 1SU      0.199000
     44 H6          0.8310   -1.7880    6.9770 ha        1 1SU      0.192000
     45 H7         -2.8630  -14.2850   11.8210 hc        1 1SU      0.114450
     46 H8         -3.1110  -12.5080   12.2250 hc        1 1SU      0.114450
     47 H9          2.5030    1.4820    3.0680 hc        1 1SU      0.115700
     48 H10         3.6410    0.1340    3.5290 hc        1 1SU      0.115700
     49 H11        -0.5670   -0.4940    0.0820 ha        1 1SU      0.173000
     50 H12         0.5180    1.0320    1.7260 ha        1 1SU      0.157000
     51 H13         3.1040   -2.2100    3.0090 ha        1 1SU      0.137000
     52 H14        -0.6480  -12.2980   12.9130 hc        1 1SU      0.114450
     53 H15        -0.3700  -14.0720   12.5160 hc        1 1SU      0.114450
     54 H16        -1.0810  -13.6980   10.1020 hc        1 1SU      0.121700
     55 H17         2.2670    0.2790    6.8470 hn        1 1SU      0.469800
     56 H18        -1.5510  -11.6770    8.2640 hn        1 1SU      0.472800
     57 C1         -1.1830   -6.0710    6.2570 cg        1 1SU      0.193800
     58 H302        3.6500    0.3350    5.9020 hn        1 1SU      0.469800
     59 H312       -0.0070  -12.0200    8.8040 hn        1 1SU      0.472800
@<TRIPOS>BOND
     1    1    7 ar  
     2    1   15 ar  
     3    1   39 1   
     4    2    3 ar  
     5    2   20 ar  
     6    2   40 1   
     7    3    9 ar  
     8    3   41 1   
     9    4    5 ar  
    10    4   21 ar  
    11    4   42 1   
    12    5   22 ar  
    13    5   43 1   
    14    6    8 ar  
    15    6   21 ar  
    16    6   44 1   
    17    7   17 ar  
    18    7   26 1   
    19    8   22 ar  
    20    8   29 1   
    21    9   18 ar  
    22    9   33 1   
    23   10   28 2   
    24   10   30 1   
    25   10   38 1   
    26   11   25 1   
    27   11   30 1   
    28   11   31 2   
    29   12   14 1   
    30   12   29 1   
    31   12   32 2   
    32   13   24 1   
    33   13   25 1   
    34   13   45 1   
    35   13   46 1   
    36   14   19 1   
    37   14   47 1   
    38   14   48 1   
    39   15   16 ar  
    40   15   49 1   
    41   16   19 ar  
    42   16   50 1   
    43   17   19 ar  
    44   17   51 1   
    45   18   23 ar  
    46   18   57 1   
    47   20   23 ar  
    48   20   28 1   
    49   21   33 1   
    50   22   34 1   
    51   23   38 1   
    52   24   25 1   
    53   24   52 1   
    54   24   53 1   
    55   25   54 1   
    56   26   35 1   
    57   26   36 1   
    58   26   37 1   
    59   27   57 3   
    60   29   55 1   
    61   29   58 1   
    62   30   56 1   
    63   30   59 1   
@<TRIPOS>SUBSTRUCTURE
     1 1SU         1 TEMP              0 ****  ****    0 ROOT
