@<TRIPOS>MOLECULE
1SU
   57    62     1     0     0
SMALL
bcc


@<TRIPOS>ATOM
      1 C4          -0.4760    -0.6810     1.9580 ca         1 1SU      -0.075000
      2 C5           7.5320     5.6860     8.7940 ca         1 1SU      -0.021000
      3 C6           6.6040     5.2120     7.8940 ca         1 1SU      -0.192000
      4 C7           3.6580     4.3990     7.4660 ca         1 1SU      -0.164000
      5 C8           2.8220     3.3050     7.6510 ca         1 1SU      -0.117000
      6 C10          4.3160     3.5210     5.2740 ca         1 1SU      -0.143000
      7 C13          0.2030     0.1970     1.1110 ca         1 1SU      -0.156000
      8 C15          3.4710     2.4080     5.4460 ca         1 1SU       0.071000
      9 C17          6.0170     6.0790     6.9430 ca         1 1SU       0.125000
     10 C20          8.8940     8.9430     9.2730 c2         1 1SU      -0.253000
     11 C21          9.4020    11.2590     9.0820 cu         1 1SU      -0.089000
     12 C22          4.0710     1.2300     3.3240 c2         1 1SU       0.315000
     13 C24         11.2130    12.3000     7.6000 cx         1 1SU      -0.173500
     14 C26          3.7260     0.0180     2.4660 c3         1 1SU      -0.150000
     15 C2           0.2230    -1.3260     2.9780 ca         1 1SU      -0.128000
     16 C3           1.5870    -1.0940     3.1500 ca         1 1SU      -0.107000
     17 C9           1.5690     0.4350     1.2750 ca         1 1SU      -0.068000
     18 C11          6.3480     7.4390     6.8860 ca         1 1SU       0.000000
     19 C12          2.2680    -0.2110     2.3010 ca         1 1SU      -0.095000
     20 C14          7.8920     7.0530     8.7610 ca         1 1SU      -0.088000
     21 C16          4.3900     4.4920     6.2780 ca         1 1SU       0.060000
     22 C18          2.7190     2.3150     6.6630 ca         1 1SU       0.020000
     23 C19          7.2970     7.9410     7.7960 ca         1 1SU      -0.358000
     24 C23         10.1210    13.3060     7.7750 cx         1 1SU      -0.173500
     25 C25         10.4110    12.3150     8.8810 cx         1 1SU      -0.241000
     26 C27         -0.5580     0.9140     0.0020 c3         1 1SU       0.466000
     27 N28          5.2550     8.9970     5.1400 n1         1 1SU      -0.023000
     28 N29          8.8170     7.6570     9.6190 n2         1 1SU      -0.083000
     29 N30          3.3340     1.3940     4.4890 ns         1 1SU      -0.321000
     30 N31          9.7570     9.9640     9.8170 nk         1 1SU       0.045000
     31 O32          9.0880    10.9690    10.4680 op         1 1SU      -0.219000
     32 O33          4.9960     1.9890     2.9880 o          1 1SU      -0.338000
     33 O34          5.1450     5.6230     5.9650 os         1 1SU      -0.142000
     34 F35          1.8890     1.2600     6.8740 f          1 1SU      -0.111000
     35 F36         -1.6260     0.2110    -0.5010 f          1 1SU      -0.162667
     36 F37         -1.0990     2.1190     0.3820 f          1 1SU      -0.162667
     37 F38          0.1970     1.2180    -1.1050 f          1 1SU      -0.162667
     38 S39          7.8970     9.5000     7.9760 ss         1 1SU       0.734000
     39 H1          -1.5530    -0.8640     1.8140 ha         1 1SU       0.157000
     40 H2           7.9970     5.0150     9.5340 ha         1 1SU       0.158000
     41 H3           6.3110     4.1500     7.8980 ha         1 1SU       0.158000
     42 H4           3.7420     5.1810     8.2350 ha         1 1SU       0.158000
     43 H5           2.2280     3.2050     8.5720 ha         1 1SU       0.157000
     44 H6           4.9140     3.6530     4.3560 ha         1 1SU       0.199000
     45 H7          11.0650    11.4680     6.8890 hc         1 1SU       0.117000
     46 H8          12.2660    12.6300     7.6410 hc         1 1SU       0.117000
     47 H9           4.2080     0.1810     1.4630 hc         1 1SU       0.130500
     48 H10          4.2150    -0.8790     2.9360 hc         1 1SU       0.130500
     49 H11         -0.3050    -2.0220     3.6480 ha         1 1SU       0.148000
     50 H12          2.1330    -1.6150     3.9520 ha         1 1SU       0.141000
     51 H13          2.0920     1.1250     0.5940 ha         1 1SU       0.161000
     52 H14         10.3800    14.3650     7.9480 hc         1 1SU       0.117000
     53 H15          9.1860    13.1910     7.1970 hc         1 1SU       0.117000
     54 H16         10.9020    12.6980     9.7990 hc         1 1SU       0.114000
     55 H17          2.6000     0.7390     4.6600 hn         1 1SU       0.246000
     56 H18         10.5640     9.6490    10.3460 hn         1 1SU       0.246000
     57 C1           5.7500     8.2990     5.9280 c1         1 1SU      -0.090000
@<TRIPOS>BOND
     1     1     7 1   
     2     1    15 1   
     3     1    39 1   
     4     2     3 1   
     5     2    20 1   
     6     2    40 1   
     7     3     9 1   
     8     3    41 1   
     9     4     5 1   
    10     4    21 1   
    11     4    42 1   
    12     5    22 1   
    13     5    43 1   
    14     6     8 1   
    15     6    21 1   
    16     6    44 1   
    17     7    17 1   
    18     7    26 1   
    19     8    22 1   
    20     8    29 1   
    21     9    18 1   
    22     9    33 1   
    23    10    28 1   
    24    10    30 1   
    25    10    38 1   
    26    11    25 1   
    27    11    30 1   
    28    11    31 1   
    29    12    14 1   
    30    12    29 1   
    31    12    32 1   
    32    13    24 1   
    33    13    25 1   
    34    13    45 1   
    35    13    46 1   
    36    14    19 1   
    37    14    47 1   
    38    14    48 1   
    39    15    16 1   
    40    15    49 1   
    41    16    19 1   
    42    16    50 1   
    43    17    19 1   
    44    17    51 1   
    45    18    23 1   
    46    18    57 1   
    47    20    23 1   
    48    20    28 1   
    49    21    33 1   
    50    22    34 1   
    51    23    38 1   
    52    24    25 1   
    53    24    52 1   
    54    24    53 1   
    55    25    54 1   
    56    26    35 1   
    57    26    36 1   
    58    26    37 1   
    59    27    57 1   
    60    29    55 1   
    61    30    31 1   
    62    30    56 1   
@<TRIPOS>SUBSTRUCTURE
     1 1SU         1 TEMP              0 ****  ****    0 ROOT
