@<TRIPOS>MOLECULE
molecule
   57    61     1     0     0
SMALL
bcc


@<TRIPOS>ATOM
      1 C4           0.0000     0.0000     0.0000 ca         1 1SU      -0.106000
      2 C5           3.8700    -8.7650     7.4560 ca         1 1SU      -0.142000
      3 C6           2.9380    -7.6970     7.5340 ca         1 1SU      -0.118000
      4 C7           3.9740    -5.5900     6.3590 ca         1 1SU      -0.292000
      5 C8           4.8510    -4.5660     6.6650 ca         1 1SU      -0.084000
      6 C10          2.4830    -4.0120     5.3290 ca         1 1SU      -0.152000
      7 C13          1.3820     0.0000     0.0000 ca         1 1SU      -0.185300
      8 C15          3.3580    -2.9830     5.6460 ca         1 1SU       0.024600
      9 C17          1.7810    -7.7670     6.4660 ca         1 1SU       0.115100
     10 C20          4.5920   -11.8710     5.4940 cc         1 1SU       0.249800
     11 C21          4.2150   -13.7320     3.8180 c          1 1SU       0.670100
     12 C22          2.3890    -1.4210     4.1350 c          1 1SU       0.579100
     13 C24          4.3900   -14.8790     1.3310 cx         1 1SU      -0.117400
     14 C26          2.1370     0.0000     3.6990 c3         1 1SU      -0.119100
     15 C2          -0.6910    -0.0010     1.1970 ca         1 1SU      -0.153000
     16 C3           0.0010    -0.0010     2.3950 ca         1 1SU      -0.061000
     17 C9           2.0740     0.0000     1.1970 ca         1 1SU      -0.063000
     18 C11          1.9660    -9.0610     5.5470 ca         1 1SU       0.022000
     19 C12          1.3830    -0.0010     2.3940 ca         1 1SU      -0.033300
     20 C14          3.9780    -9.7720     6.7090 ca         1 1SU       0.199400
     21 C16          2.7890    -5.3160     5.6900 ca         1 1SU       0.193100
     22 C18          4.5470    -3.2640     6.3110 ca         1 1SU       0.039900
     23 C19          3.0100    -9.8430     5.8060 ca         1 1SU      -0.246100
     24 C23          5.1940   -13.2100     1.3540 cx         1 1SU      -0.117400
     25 C25          5.0220   -14.1900     2.6910 cx         1 1SU      -0.132700
     26 C27          2.1350     0.0010    -1.3060 c3         1 1SU       0.672200
     27 N28         -0.2090    -9.9760     5.4440 n1         1 1SU      -0.398800
     28 N29          5.0220   -11.0000     6.5960 nd         1 1SU      -0.618100
     29 N30          3.0520    -1.6660     5.2820 ns         1 1SU      -0.355100
     30 N31          5.0040   -13.0260     4.9270 ns         1 1SU      -0.436400
     31 O32          3.7210   -12.5720     3.9910 o          1 1SU      -0.656100
     32 O33          1.9950    -2.3430     3.4530 o          1 1SU      -0.554100
     33 O34          1.9460    -6.3370     5.3900 os         1 1SU      -0.325200
     34 F35          5.9200    -3.0340     5.8290 f          1 1SU      -0.176900
     35 F36          2.9390     1.1430    -1.3800 f          1 1SU      -0.223633
     36 F37          2.9390    -1.1420    -1.3800 f          1 1SU      -0.223633
     37 F38          1.2250     0.0000    -2.3680 f          1 1SU      -0.223633
     38 S39          3.2600   -11.3440     4.7700 ss         1 1SU       0.540900
     39 H1          -0.4330    -0.0060    -0.9930 ha         1 1SU       0.149000
     40 H2           4.6900    -8.5170     8.1180 ha         1 1SU       0.122000
     41 H3           3.2140    -6.7870     8.0520 ha         1 1SU       0.180000
     42 H4           3.8770    -6.4780     6.9720 ha         1 1SU       0.162000
     43 H5           5.5200    -5.1290     7.3030 ha         1 1SU       0.160000
     44 H6           1.5530    -3.5280     5.0590 ha         1 1SU       0.178000
     45 H7           3.3460   -14.8030     1.6090 hc         1 1SU       0.099950
     46 H8           4.9340   -15.6330     0.7760 hc         1 1SU       0.099950
     47 H9           1.9530     0.6460     4.5490 hc         1 1SU       0.075700
     48 H10          3.1260     0.4410     3.6730 hc         1 1SU       0.075700
     49 H11         -1.6710     0.2580     0.8140 ha         1 1SU       0.154000
     50 H12         -0.7880    -0.0710     3.1340 ha         1 1SU       0.152000
     51 H13          3.1420    -0.1750     1.2350 ha         1 1SU       0.145000
     52 H14          4.3470   -12.5850     1.0990 hc         1 1SU       0.099950
     53 H15          6.0050   -13.0400     0.6550 hc         1 1SU       0.099950
     54 H16          6.0270   -14.4230     3.0240 hc         1 1SU       0.106700
     55 H17          3.7530    -1.2080     4.7340 hn         1 1SU       0.270500
     56 H18          5.8680   -13.3410     5.3210 hn         1 1SU       0.260500
     57 C1           0.5940    -9.7010     5.4410 cg         1 1SU       0.417800
@<TRIPOS>BOND
     1    35    26 1   
     2    36    26 1   
     3    26    37 1   
     4    26     7 1   
     5     1     7 ar  
     6     1    15 ar  
     7     7    17 ar  
     8    15    16 ar  
     9    17    19 ar  
    10    16    19 ar  
    11    19    14 1   
    12    14    12 1   
    13    32    12 2   
    14    12    29 1   
    15    29     8 1   
    16     6     8 ar  
    17     6    21 ar  
    18     8    22 ar  
    19    33    21 1   
    20    33     9 1   
    21    21     4 ar  
    22     3     9 ar  
    23     3     2 ar  
    24    22    34 1   
    25    22     5 ar  
    26     9    18 ar  
    27     2    20 ar  
    28    18    57 1   
    29    18    23 ar  
    30    20    23 ar  
    31    20    28 1   
    32    57    27 3   
    33    23    38 1   
    34    28    10 2   
    35     4     5 ar  
    36    10    38 1   
    37    10    30 1   
    38    30    11 1   
    39    31    11 2   
    40    11    25 1   
    41    24    13 1   
    42    24    25 1   
    43    13    25 1   
    44     1    39 1   
    45     2    40 1   
    46     3    41 1   
    47     4    42 1   
    48     5    43 1   
    49     6    44 1   
    50    13    45 1   
    51    13    46 1   
    52    14    47 1   
    53    14    48 1   
    54    15    49 1   
    55    16    50 1   
    56    17    51 1   
    57    24    52 1   
    58    24    53 1   
    59    25    54 1   
    60    29    55 1   
    61    30    56 1   
@<TRIPOS>SUBSTRUCTURE
     1 1SU         1 TEMP              0 ****  ****    0 ROOT
