@<TRIPOS>MOLECULE
1SV
   36    37     1     0     0
SMALL
bcc


@<TRIPOS>ATOM
      1 C2           0.0000     0.0000     0.0000 c3         1 1SV      -0.037400
      2 C1           1.5320     0.0000     0.0000 c3         1 1SV      -0.115700
      3 N1           2.0160     0.0000     1.3750 nu         1 1SV       0.389900
      4 C9           1.3680     0.4690     2.3600 c2         1 1SV       0.167300
      5 C4           0.0010     1.0810     2.2560 c3         1 1SV      -0.131300
      6 C3          -0.4800     1.2000     0.8190 c3         1 1SV      -0.040400
      7 C8           2.0110     0.4110     3.7360 c3         1 1SV      -0.099700
      8 C7           1.9670     1.8150     4.3470 c3         1 1SV       0.025500
      9 C6           0.5240     2.3230     4.3590 c3         1 1SV      -0.040400
     10 C5           0.0120     2.4590     2.9230 c3         1 1SV      -0.017400
     11 C10         -0.9860     0.1890     3.0110 c3         1 1SV      -0.001100
     12 C11          2.8200     2.7470     3.5260 c2         1 1SV      -0.209400
     13 C12          3.5770     2.2210     2.3340 c3         1 1SV       0.045100
     14 C13          2.9040     4.0130     3.8490 c2         1 1SV      -0.092000
     15 H1          -0.3640     0.0840    -1.0170 hc         1 1SV       0.052700
     16 H2          -0.3640    -0.9160     0.4490 hc         1 1SV       0.052700
     17 H3           1.8920     0.8860    -0.5090 h1         1 1SV       0.072200
     18 H4           1.8920    -0.8860    -0.5080 h1         1 1SV       0.072200
     19 H5          -1.5630     1.2310     0.8060 hc         1 1SV       0.051700
     20 H6          -0.0850     2.1100     0.3840 hc         1 1SV       0.051700
     21 H7           3.0400     0.0860     3.6440 hc         1 1SV       0.059700
     22 H8           1.4600    -0.2780     4.3660 hc         1 1SV       0.059700
     23 H9           2.3410     1.7760     5.3630 hc         1 1SV       0.063700
     24 H10          0.4880     3.2890     4.8460 hc         1 1SV       0.043700
     25 H11         -0.0990     1.6190     4.8960 hc         1 1SV       0.043700
     26 H12         -0.9930     2.8620     2.9360 hc         1 1SV       0.044200
     27 H13          0.6660     3.1230     2.3690 hc         1 1SV       0.044200
     28 H14         -1.9540     0.6730     3.0500 hc         1 1SV       0.028700
     29 H15         -1.0780    -0.7620     2.4990 hc         1 1SV       0.028700
     30 H16         -0.6240     0.0230     4.0180 hc         1 1SV       0.028700
     31 H17          4.4470     2.8420     2.1560 hc         1 1SV       0.005367
     32 H18          3.8940     1.2030     2.5270 hc         1 1SV       0.005367
     33 H19          2.9360     2.2410     1.4610 hc         1 1SV       0.005367
     34 H20          2.3600     4.3910     4.7060 ha         1 1SV       0.100500
     35 H21          3.5180     4.6830     3.2580 ha         1 1SV       0.100500
     36 H22          2.9170    -0.3970     1.5540 hn         1 1SV       0.142700
@<TRIPOS>BOND
     1     1     2 1   
     2     1     6 1   
     3     1    15 1   
     4     1    16 1   
     5     2     3 1   
     6     2    17 1   
     7     2    18 1   
     8     3     4 2   
     9     3    36 1   
    10     4     5 1   
    11     4     7 1   
    12     5     6 1   
    13     5    10 1   
    14     5    11 1   
    15     6    19 1   
    16     6    20 1   
    17     7     8 1   
    18     7    21 1   
    19     7    22 1   
    20     8     9 1   
    21     8    12 1   
    22     8    23 1   
    23     9    10 1   
    24     9    24 1   
    25     9    25 1   
    26    10    26 1   
    27    10    27 1   
    28    11    28 1   
    29    11    29 1   
    30    11    30 1   
    31    12    13 1   
    32    12    14 2   
    33    13    31 1   
    34    13    32 1   
    35    13    33 1   
    36    14    34 1   
    37    14    35 1   
@<TRIPOS>SUBSTRUCTURE
     1 1SV         1 TEMP              0 ****  ****    0 ROOT
