@<TRIPOS>MOLECULE
molecule
   36    37     1     0     0
SMALL
bcc


@<TRIPOS>ATOM
      1 C2           0.0000     0.0000     0.0000 c3         1 1SV      -0.105400
      2 C1           1.5320     0.0000     0.0000 c3         1 1SV      -0.014700
      3 N1           2.0160     0.0000     1.3750 nu         1 1SV      -0.203100
      4 C9           1.3680     0.4690     2.3600 c2         1 1SV       0.397300
      5 C4           0.0010     1.0810     2.2560 c3         1 1SV      -0.148300
      6 C3          -0.4800     1.2000     0.8190 c3         1 1SV      -0.089400
      7 C8           2.0110     0.4110     3.7360 c3         1 1SV      -0.168700
      8 C7           1.9670     1.8150     4.3470 c3         1 1SV      -0.019500
      9 C6           0.5240     2.3230     4.3590 c3         1 1SV      -0.088400
     10 C5           0.0120     2.4590     2.9230 c3         1 1SV      -0.068400
     11 C10         -0.9860     0.1890     3.0110 c3         1 1SV      -0.088100
     12 C11          2.8200     2.7470     3.5260 c2         1 1SV      -0.184400
     13 C12          3.5770     2.2210     2.3340 c3         1 1SV      -0.061900
     14 C13          2.9040     4.0130     3.8490 c2         1 1SV      -0.161000
     15 H1          -0.3640    -0.9160     0.4490 hc         1 1SV       0.085700
     16 H2          -0.3640     0.0840    -1.0170 hc         1 1SV       0.085700
     17 H3           1.8920    -0.8860    -0.5080 h1         1 1SV       0.100700
     18 H4           1.8920     0.8860    -0.5090 h1         1 1SV       0.100700
     19 H5          -1.5630     1.2310     0.8060 hc         1 1SV       0.080700
     20 H6          -0.0850     2.1100     0.3840 hc         1 1SV       0.080700
     21 H7           1.4600    -0.2780     4.3660 hc         1 1SV       0.094700
     22 H8           3.0400     0.0860     3.6440 hc         1 1SV       0.094700
     23 H9           2.3410     1.7760     5.3630 hc         1 1SV       0.098700
     24 H10         -0.0990     1.6190     4.8960 hc         1 1SV       0.071700
     25 H11          0.4880     3.2890     4.8460 hc         1 1SV       0.071700
     26 H12          0.6660     3.1230     2.3690 hc         1 1SV       0.076200
     27 H13         -0.9930     2.8620     2.9360 hc         1 1SV       0.076200
     28 H14         -0.6240     0.0220     4.0180 hc         1 1SV       0.061700
     29 H15         -1.9540     0.6730     3.0500 hc         1 1SV       0.061700
     30 H16         -1.0780    -0.7620     2.4990 hc         1 1SV       0.061700
     31 H17          2.9360     2.2410     1.4610 hc         1 1SV       0.039367
     32 H18          4.4470     2.8420     2.1560 hc         1 1SV       0.039367
     33 H19          3.8940     1.2030     2.5270 hc         1 1SV       0.039367
     34 H20          3.5180     4.6830     3.2580 ha         1 1SV       0.132500
     35 H21          2.3610     4.3910     4.7060 ha         1 1SV       0.132500
     36 H22          2.9170    -0.3970     1.5540 hn         1 1SV       0.320700
@<TRIPOS>BOND
     1    10     9 1   
     2    10     5 1   
     3     6     5 1   
     4     6     1 1   
     5    14    12 2   
     6     9     8 1   
     7     5    11 1   
     8     5     4 1   
     9     1     2 1   
    10    12     8 1   
    11    12    13 1   
    12     2     3 1   
    13     8     7 1   
    14     4     3 2   
    15     4     7 1   
    16     1    15 1   
    17     1    16 1   
    18     2    17 1   
    19     2    18 1   
    20     6    19 1   
    21     6    20 1   
    22     7    21 1   
    23     7    22 1   
    24     8    23 1   
    25     9    24 1   
    26     9    25 1   
    27    10    26 1   
    28    10    27 1   
    29    11    28 1   
    30    11    29 1   
    31    11    30 1   
    32    13    31 1   
    33    13    32 1   
    34    13    33 1   
    35    14    34 1   
    36    14    35 1   
    37     3    36 1   
@<TRIPOS>SUBSTRUCTURE
     1 1SV         1 TEMP              0 ****  ****    0 ROOT
