@<TRIPOS>MOLECULE
1SV
   36    37     1     0     0
SMALL
bcc


@<TRIPOS>ATOM
      1 C2          -0.1520     0.0630    -0.0180 c3         1 1SV      -0.105400
      2 C1           1.3660     0.0030    -0.1250 c3         1 1SV      -0.017700
      3 N1           2.0400     0.1270     1.1610 nu         1 1SV      -0.227100
      4 C9           1.4710     0.5640     2.2660 c2         1 1SV       0.411300
      5 C4           0.0180     1.0080     2.3210 c3         1 1SV      -0.128300
      6 C3          -0.5770     1.1710     0.9160 c3         1 1SV      -0.095400
      7 C8           2.2390     0.6170     3.5560 c3         1 1SV      -0.182700
      8 C7           2.1710     2.0050     4.1950 c3         1 1SV      -0.015500
      9 C6           0.7140     2.4160     4.3350 c3         1 1SV      -0.092400
     10 C5          -0.0490     2.3660     3.0320 c3         1 1SV      -0.078400
     11 C10         -0.7750    -0.0430     3.0920 c3         1 1SV      -0.100100
     12 C11          3.0590     2.9910     3.5020 c2         1 1SV      -0.159400
     13 C12          4.4750     2.5610     3.3370 c3         1 1SV      -0.065900
     14 C13          2.6720     4.2120     3.1200 c2         1 1SV      -0.183000
     15 H1          -0.5690     0.2450    -1.0440 hc         1 1SV       0.087700
     16 H2          -0.5540    -0.9230     0.3370 hc         1 1SV       0.087700
     17 H3           1.6830    -0.9790    -0.5830 h1         1 1SV       0.100200
     18 H4           1.7420     0.8420    -0.7830 h1         1 1SV       0.100200
     19 H5          -1.6970     1.1870     0.9990 hc         1 1SV       0.081200
     20 H6          -0.2640     2.1610     0.4860 hc         1 1SV       0.081200
     21 H7           1.7560    -0.1270     4.2530 hc         1 1SV       0.099200
     22 H8           3.3130     0.3100     3.4320 hc         1 1SV       0.099200
     23 H9           2.5920     1.8910     5.2420 hc         1 1SV       0.094700
     24 H10          0.6570     3.4570     4.7540 hc         1 1SV       0.073700
     25 H11          0.2230     1.7380     5.0850 hc         1 1SV       0.073700
     26 H12          0.3470     3.1580     2.3390 hc         1 1SV       0.074200
     27 H13         -1.1310     2.5980     3.2240 hc         1 1SV       0.074200
     28 H14         -0.7190    -1.0350     2.5840 hc         1 1SV       0.064367
     29 H15         -0.3980    -0.1460     4.1380 hc         1 1SV       0.064367
     30 H16         -1.8490     0.2700     3.1400 hc         1 1SV       0.064367
     31 H17          4.8340     2.0180     4.2460 hc         1 1SV       0.047033
     32 H18          5.1450     3.4420     3.1730 hc         1 1SV       0.047033
     33 H19          4.5790     1.8830     2.4530 hc         1 1SV       0.047033
     34 H20          1.6530     4.5990     3.2450 ha         1 1SV       0.128500
     35 H21          3.3770     4.9240     2.6650 ha         1 1SV       0.128500
     36 H22          3.0130    -0.1340     1.1690 hn         1 1SV       0.321700
@<TRIPOS>BOND
     1     1     2 1   
     2     1     6 1   
     3     1    15 1   
     4     1    16 1   
     5     2     3 1   
     6     2    17 1   
     7     2    18 1   
     8     3     4 2   
     9     3    36 1   
    10     4     5 1   
    11     4     7 1   
    12     5     6 1   
    13     5    10 1   
    14     5    11 1   
    15     6    19 1   
    16     6    20 1   
    17     7     8 1   
    18     7    21 1   
    19     7    22 1   
    20     8     9 1   
    21     8    12 1   
    22     8    23 1   
    23     9    10 1   
    24     9    24 1   
    25     9    25 1   
    26    10    26 1   
    27    10    27 1   
    28    11    28 1   
    29    11    29 1   
    30    11    30 1   
    31    12    13 1   
    32    12    14 2   
    33    13    31 1   
    34    13    32 1   
    35    13    33 1   
    36    14    34 1   
    37    14    35 1   
@<TRIPOS>SUBSTRUCTURE
     1 1SV         1 TEMP              0 ****  ****    0 ROOT
