@<TRIPOS>MOLECULE
1SW
   56    60     1     0     0
SMALL
bcc


@<TRIPOS>ATOM
      1 F1           0.0090     0.3540     0.5130 f          1 1SW      -0.145900
      2 C2           1.3500     0.2600     0.3170 ca         1 1SW       0.058900
      3 C3           2.2080     0.3210     1.4260 ca         1 1SW      -0.120000
      4 C4           3.5840     0.2320     1.2550 ca         1 1SW      -0.160000
      5 C5           4.0960     0.0840    -0.0380 ca         1 1SW       0.106100
      6 O6           5.4650     0.1110    -0.3040 os         1 1SW      -0.234200
      7 C7           6.2740    -0.6190     0.5580 ca         1 1SW       0.144100
      8 C8           5.8660    -1.8610     1.0900 ca         1 1SW      -0.175000
      9 C9           6.7310    -2.6120     1.8600 ca         1 1SW      -0.040000
     10 C10          8.0330    -2.1260     2.1120 ca         1 1SW       0.087400
     11 N11          8.9990    -2.7880     2.8700 nc         1 1SW      -0.583100
     12 C12         10.1190    -2.0440     2.8990 cd         1 1SW       0.398800
     13 N13         11.2730    -2.4330     3.5750 ns         1 1SW      -0.462400
     14 C14         12.4340    -1.6610     3.6050 c          1 1SW       0.691100
     15 O15         12.4810    -0.5650     3.0190 o          1 1SW      -0.565100
     16 C16         13.5730    -2.2130     4.3980 cx         1 1SW      -0.213700
     17 C17         14.8580    -2.5550     3.6920 cx         1 1SW      -0.110900
     18 C18         14.0030    -3.6480     4.2560 cx         1 1SW      -0.110900
     19 S19         10.0340    -0.5310     2.0170 ss         1 1SW       0.129900
     20 C20          8.4470    -0.8630     1.5710 ca         1 1SW      -0.109100
     21 C21          7.5560    -0.1030     0.7950 ca         1 1SW       0.013000
     22 C22          7.9520     1.1490     0.2580 cg         1 1SW       0.238800
     23 N23          8.2650     2.1780    -0.1850 n1         1 1SW      -0.346800
     24 C24          3.2690     0.0170    -1.1650 ca         1 1SW      -0.119000
     25 C25          1.8740     0.1120    -1.0060 ca         1 1SW       0.049600
     26 N26          0.9950     0.1290    -2.1060 ns         1 1SW      -0.457100
     27 C27          1.2060    -0.6770    -3.2500 c          1 1SW       0.770100
     28 O28          2.2780    -1.2910    -3.4310 o          1 1SW      -0.598100
     29 N29          0.1410    -0.7460    -4.1760 ns         1 1SW      -0.462100
     30 C30          0.2810    -1.3110    -5.4590 ca         1 1SW       0.060600
     31 C31         -0.4900    -0.7870    -6.5240 ca         1 1SW      -0.151000
     32 C32         -0.4350    -1.3690    -7.7850 ca         1 1SW      -0.111000
     33 C33          0.3850    -2.4700    -8.0250 ca         1 1SW      -0.103000
     34 C34          1.1500    -2.9860    -6.9790 ca         1 1SW      -0.145300
     35 C35          1.1100    -2.4270    -5.7030 ca         1 1SW      -0.090000
     36 C36          2.0630    -4.1810    -7.2370 c3         1 1SW       0.688200
     37 F37          1.6300    -5.0210    -8.2350 f          1 1SW      -0.235300
     38 F38          3.3390    -3.8430    -7.6170 f          1 1SW      -0.235300
     39 F39          2.2410    -5.0110    -6.1570 f          1 1SW      -0.235300
     40 H1           1.7750     0.4420     2.4300 ha         1 1SW       0.157000
     41 H2           4.2620     0.2770     2.1200 ha         1 1SW       0.158000
     42 H3           4.8480    -2.2240     0.8740 ha         1 1SW       0.158000
     43 H4           6.4190    -3.5850     2.2730 ha         1 1SW       0.159000
     44 H5          11.2600    -3.3050     4.0580 hn         1 1SW       0.344500
     45 H6          13.6210    -1.7290     5.3960 hc         1 1SW       0.116700
     46 H7          15.8120    -2.2990     4.1890 hc         1 1SW       0.084450
     47 H8          14.9160    -2.4230     2.5960 hc         1 1SW       0.084450
     48 H9          13.4600    -4.3150     3.5620 hc         1 1SW       0.084450
     49 H10         14.3390    -4.1870     5.1610 hc         1 1SW       0.084450
     50 H11          3.7210    -0.1100    -2.1630 ha         1 1SW       0.193000
     51 H12          0.0550     0.3730    -1.8730 hn         1 1SW       0.320500
     52 H13         -0.5860    -0.0680    -4.1000 hn         1 1SW       0.314500
     53 H14         -1.1440     0.0850    -6.3650 ha         1 1SW       0.137000
     54 H15         -1.0430    -0.9520    -8.6030 ha         1 1SW       0.144000
     55 H16          0.4280    -2.9320    -9.0240 ha         1 1SW       0.154000
     56 H17          1.7320    -2.8570    -4.8980 ha         1 1SW       0.187000
@<TRIPOS>BOND
     1     1     2 1   
     2     2     3 ar  
     3     2    25 ar  
     4     3     4 ar  
     5     3    40 1   
     6     4     5 ar  
     7     4    41 1   
     8     5     6 1   
     9     5    24 ar  
    10     6     7 1   
    11     7     8 ar  
    12     7    21 ar  
    13     8     9 ar  
    14     8    42 1   
    15     9    10 ar  
    16     9    43 1   
    17    10    11 1   
    18    10    20 ar  
    19    11    12 2   
    20    12    13 1   
    21    12    19 1   
    22    13    14 1   
    23    13    44 1   
    24    14    15 2   
    25    14    16 1   
    26    16    17 1   
    27    16    18 1   
    28    16    45 1   
    29    17    18 1   
    30    17    46 1   
    31    17    47 1   
    32    18    48 1   
    33    18    49 1   
    34    19    20 1   
    35    20    21 ar  
    36    21    22 1   
    37    22    23 3   
    38    24    25 ar  
    39    24    50 1   
    40    25    26 1   
    41    26    27 1   
    42    26    51 1   
    43    27    28 2   
    44    27    29 1   
    45    29    30 1   
    46    29    52 1   
    47    30    31 ar  
    48    30    35 ar  
    49    31    32 ar  
    50    31    53 1   
    51    32    33 ar  
    52    32    54 1   
    53    33    34 ar  
    54    33    55 1   
    55    34    35 ar  
    56    34    36 1   
    57    35    56 1   
    58    36    37 1   
    59    36    38 1   
    60    36    39 1   
@<TRIPOS>SUBSTRUCTURE
     1 1SW         1 TEMP              0 ****  ****    0 ROOT
