@<TRIPOS>MOLECULE
molecule
   56    60     1     0     0
SMALL
bcc


@<TRIPOS>ATOM
      1 F1           0.0000     0.0000     0.0000 f          1 1SW      -0.142900
      2 C2           1.3510     0.0000     0.0000 ca         1 1SW       0.078900
      3 C3           2.0430     0.0000     1.1960 ca         1 1SW      -0.132000
      4 C4           3.4250    -0.0020     1.1980 ca         1 1SW      -0.110000
      5 C5           4.1230    -0.0020    -0.0010 ca         1 1SW       0.109100
      6 O6           5.4810    -0.0040     0.0020 os         1 1SW      -0.230200
      7 C7           6.1210     1.1460    -0.3320 ca         1 1SW       0.184100
      8 C8           5.3950     2.3100    -0.5490 ca         1 1SW      -0.209000
      9 C9           6.0300     3.4800    -0.8860 ca         1 1SW      -0.018000
     10 C10          7.4340     3.5300    -1.0240 ca         1 1SW       0.128400
     11 N11          8.2120     4.5840    -1.3470 nc         1 1SW      -0.573100
     12 C12          9.4830     4.3980    -1.4150 cd         1 1SW       0.487800
     13 N13         10.4110     5.3770    -1.7320 ns         1 1SW      -0.452400
     14 C14         10.0000     6.6330    -1.9990 c          1 1SW       0.707100
     15 O15          8.8200     6.9060    -1.9610 o          1 1SW      -0.515100
     16 C16         11.0090     7.6970    -2.3450 cx         1 1SW      -0.219700
     17 C17         10.4810     9.1030    -2.6390 cx         1 1SW      -0.143900
     18 C18         11.0110     8.2300    -3.7790 cx         1 1SW      -0.143900
     19 S19          9.8760     2.7240    -1.0460 ss         1 1SW      -0.119100
     20 C20          8.1680     2.3630    -0.8070 ca         1 1SW      -0.004100
     21 C21          7.5140     1.1660    -0.4550 ca         1 1SW      -0.012000
     22 C22          8.2720    -0.0280    -0.2280 cg         1 1SW       0.249800
     23 N23          8.8890    -0.9640    -0.0430 n1         1 1SW      -0.359800
     24 C24          3.4330    -0.0030    -1.2040 ca         1 1SW      -0.172000
     25 C25          2.0460    -0.0080    -1.2050 ca         1 1SW       0.024600
     26 N26          1.3460    -0.0090    -2.4190 ns         1 1SW      -0.471100
     27 C27          1.9640     0.3700    -3.5540 c          1 1SW       0.791100
     28 O28          3.0970     0.8120    -3.5120 o          1 1SW      -0.627100
     29 N29          1.3280     0.2620    -4.7370 ns         1 1SW      -0.481100
     30 C30          2.0060     0.5540    -5.9260 ca         1 1SW       0.020600
     31 C31          1.7440    -0.1800    -7.0760 ca         1 1SW      -0.178000
     32 C32          2.4140     0.1120    -8.2470 ca         1 1SW      -0.098000
     33 C33          3.3470     1.1330    -8.2760 ca         1 1SW      -0.084000
     34 C34          3.6090     1.8650    -7.1340 ca         1 1SW      -0.147300
     35 C35          2.9380     1.5820    -5.9600 ca         1 1SW      -0.085000
     36 C36          4.6270     2.9770    -7.1700 c3         1 1SW       0.677200
     37 F37          4.0100     4.1850    -6.8290 f          1 1SW      -0.219967
     38 F38          5.6500     2.7020    -6.2560 f          1 1SW      -0.219967
     39 F39          5.1640     3.0750    -8.4570 f          1 1SW      -0.219967
     40 H1           1.3100     0.1960     1.9690 ha         1 1SW       0.159000
     41 H2           4.0680     0.0270     2.0700 ha         1 1SW       0.159000
     42 H3           4.3140     2.3350    -0.4860 ha         1 1SW       0.158000
     43 H4           5.2920     4.2280    -1.1500 ha         1 1SW       0.158000
     44 H5          11.3960     5.3030    -1.5720 hn         1 1SW       0.341500
     45 H6          12.0200     8.0440    -2.1680 hc         1 1SW       0.114700
     46 H7           9.4190     9.2780    -2.5120 hc         1 1SW       0.080200
     47 H8          10.9410     9.9970    -2.2360 hc         1 1SW       0.080200
     48 H9          11.7580     8.9100    -4.1690 hc         1 1SW       0.080200
     49 H10         10.3910     7.8870    -4.5990 hc         1 1SW       0.080200
     50 H11          3.7390     0.0220    -2.2430 ha         1 1SW       0.226000
     51 H12          0.4490    -0.4510    -2.4770 hn         1 1SW       0.332500
     52 H13          0.4690    -0.2170    -4.9220 hn         1 1SW       0.329500
     53 H14          1.4810    -1.1830    -6.7610 ha         1 1SW       0.136000
     54 H15          2.1470    -0.7550    -8.8400 ha         1 1SW       0.152000
     55 H16          3.9150     1.4650    -9.1360 ha         1 1SW       0.157000
     56 H17          2.8140     2.1390    -5.0390 ha         1 1SW       0.180000
@<TRIPOS>BOND
     1    37    36 1
     2    38    36 1
     3    36    39 1
     4    36    34 1
     5    33    34 ar
     6    33    32 ar
     7    34    35 ar
     8    32    31 ar
     9    35    30 ar
    10    31    30 ar
    11    30    29 1
    12    29    27 1
    13    28    27 2
    14    27    26 1
    15    26    25 1
    16    24    25 ar
    17    24     5 ar
    18    25     2 ar
    19     6     5 1
    20     6     7 1
    21     5     4 ar
    22     8     7 ar
    23     8     9 ar
    24     7    21 ar
    25     2     1 1
    26     2     3 ar
    27     9    10 ar
    28    21    22 1
    29    21    20 ar
    30    22    23 3
    31    10    20 ar
    32    10    11 1
    33    20    19 1
    34    11    12 2
    35     4     3 ar
    36    19    12 1
    37    12    13 1
    38    15    14 2
    39    13    14 1
    40    18    17 1
    41    18    16 1
    42    14    16 1
    43    17    16 1
    44     3    40 1
    45     4    41 1
    46     8    42 1
    47     9    43 1
    48    13    44 1
    49    16    45 1
    50    17    46 1
    51    17    47 1
    52    18    48 1
    53    18    49 1
    54    24    50 1
    55    26    51 1
    56    29    52 1
    57    31    53 1
    58    32    54 1
    59    33    55 1
    60    35    56 1
@<TRIPOS>SUBSTRUCTURE
     1 1SW         1 TEMP              0 ****  ****    0 ROOT
