@<TRIPOS>MOLECULE
molecule
   39    41     1     0     0
SMALL
bcc


@<TRIPOS>ATOM
      1 C2           0.0000     0.0000     0.0000 c3         1 1SX      -0.025300
      2 C12          1.0170     0.0010     3.7250 cc         1 1SX       0.538400
      3 C15          0.3890     0.0010     6.0120 c          1 1SX       0.672700
      4 C17         -0.6540     0.0010     7.0600 ca         1 1SX      -0.153600
      5 C18         -0.2930     0.0010     8.4090 ca         1 1SX      -0.083000
      6 C20         -1.2710     0.0010     9.3820 ca         1 1SX      -0.136500
      7 C22         -2.6080     0.0030     9.0230 ca         1 1SX      -0.041300
      8 C23         -2.9720     0.0020     7.6880 ca         1 1SX      -0.136500
      9 C25         -2.0040     0.0080     6.7060 ca         1 1SX      -0.083000
     10 C27         -3.6710     0.0040    10.0910 c3         1 1SX      -0.029700
     11 C28         -5.0520     0.0040     9.4360 c3         1 1SX      -0.081433
     12 S1           1.8180     0.0000     0.0000 ss         1 1SX      -0.243400
     13 C5          -0.3780     0.0010     1.4810 c3         1 1SX       0.034300
     14 N8           0.7920     0.0010     2.3570 na         1 1SX      -0.414700
     15 C9           2.0060     0.0000     1.7590 cc         1 1SX       0.499800
     16 N10          2.9420     0.0010     2.6860 nd         1 1SX      -0.317000
     17 N11          2.3060     0.0010     3.9320 nd         1 1SX      -0.328000
     18 N13          0.0370     0.0010     4.7110 ns         1 1SX      -0.543400
     19 O16          1.5640     0.0010     6.3240 o          1 1SX      -0.524100
     20 C32         -3.5200    -1.2450    10.9610 c3         1 1SX      -0.081433
     21 C36         -3.5170     1.2530    10.9620 c3         1 1SX      -0.081433
     22 H1          -0.3540     0.9170    -0.4560 h1         1 1SX       0.092700
     23 H2          -0.3540    -0.9170    -0.4550 h1         1 1SX       0.092700
     24 H3           0.7530    -0.0010     8.6910 ha         1 1SX       0.138500
     25 H4          -0.9920     0.0020    10.4280 ha         1 1SX       0.141500
     26 H5          -4.0200     0.0050     7.4140 ha         1 1SX       0.141500
     27 H6          -2.2910     0.0070     5.6610 ha         1 1SX       0.138500
     28 H7          -5.8160     0.0050    10.2040 hc         1 1SX       0.038811
     29 H8          -5.1600     0.8890     8.8200 hc         1 1SX       0.038811
     30 H9          -5.1600    -0.8800     8.8190 hc         1 1SX       0.038811
     31 H10         -0.9330    -0.9080     1.6770 h1         1 1SX       0.066700
     32 H11         -0.9320     0.9120     1.6760 h1         1 1SX       0.066700
     33 H12         -0.9310     0.0000     4.4550 hn         1 1SX       0.327500
     34 H13         -3.4770    -2.1240    10.3280 hc         1 1SX       0.038811
     35 H14         -2.6070    -1.1740    11.5410 hc         1 1SX       0.038811
     36 H15         -4.3680    -1.3240    11.6310 hc         1 1SX       0.038811
     37 H16         -4.3650     1.3320    11.6310 hc         1 1SX       0.038811
     38 H17         -2.6050     1.1790    11.5410 hc         1 1SX       0.038811
     39 H18         -3.4730     2.1310    10.3290 hc         1 1SX       0.038811
@<TRIPOS>BOND
     1    11    10 1   
     2     1    13 1   
     3     1    12 1   
     4    10    21 1   
     5    10     7 1   
     6    10    20 1   
     7     8     7 ar  
     8     8     9 ar  
     9     7     6 ar  
    10    13    14 1   
    11     9     4 ar  
    12     6     5 ar  
    13     4     5 ar  
    14     4     3 1   
    15    18     3 1   
    16    18     2 1   
    17    14     2 1   
    18    14    15 1   
    19    12    15 1   
    20     3    19 2   
    21     2    17 2   
    22    15    16 2   
    23    17    16 1   
    24     1    22 1   
    25     1    23 1   
    26     5    24 1   
    27     6    25 1   
    28     8    26 1   
    29     9    27 1   
    30    11    28 1   
    31    11    29 1   
    32    11    30 1   
    33    13    31 1   
    34    13    32 1   
    35    18    33 1   
    36    20    34 1   
    37    20    35 1   
    38    20    36 1   
    39    21    37 1   
    40    21    38 1   
    41    21    39 1   
@<TRIPOS>SUBSTRUCTURE
     1 1SX         1 TEMP              0 ****  ****    0 ROOT
