@<TRIPOS>MOLECULE
1SX
   39    41     1     0     0
SMALL
bcc


@<TRIPOS>ATOM
      1 C2           0.5030    -0.5430    -0.2520 c3         1 1SX      -0.050300
      2 C12          0.4300    -0.0630     3.5260 cc         1 1SX       0.494400
      3 C15         -1.2720    -1.6880     4.2650 c          1 1SX       0.686700
      4 C17         -2.1990    -2.0270     5.3790 ca         1 1SX      -0.155600
      5 C18         -1.8690    -1.7850     6.7160 ca         1 1SX      -0.086000
      6 C20         -2.7590    -2.1410     7.7250 ca         1 1SX      -0.136500
      7 C22         -3.9930    -2.7410     7.4240 ca         1 1SX      -0.032300
      8 C23         -4.3070    -2.9860     6.0820 ca         1 1SX      -0.136500
      9 C25         -3.4170    -2.6380     5.0670 ca         1 1SX      -0.086000
     10 C27         -4.9260    -3.1020     8.5490 c3         1 1SX      -0.015700
     11 C28         -5.2850    -1.8420     9.3330 c3         1 1SX      -0.087100
     12 S1           2.0390     0.3390     0.1000 ss         1 1SX      -0.180400
     13 C5          -0.2790    -0.7690     1.0540 c3         1 1SX       0.046300
     14 N8           0.4750    -0.1700     2.1230 na         1 1SX      -0.336700
     15 C9           1.7200     0.4060     1.7580 cc         1 1SX       0.406800
     16 N10          2.3450     0.8560     2.8820 nd         1 1SX      -0.299000
     17 N11          1.5990     0.5840     3.9270 nd         1 1SX      -0.374000
     18 N13         -0.6330    -0.4510     4.3520 ns         1 1SX      -0.525400
     19 O16         -1.1210    -2.4300     3.2770 o          1 1SX      -0.592100
     20 C32         -4.2330    -4.0950     9.4800 c3         1 1SX      -0.087100
     21 C36         -6.2180    -3.7380     8.0510 c3         1 1SX      -0.087100
     22 H1          -0.0980     0.0630    -0.9690 h1         1 1SX       0.086700
     23 H2           0.7550    -1.5180    -0.7300 h1         1 1SX       0.086700
     24 H3          -0.9020    -1.3340     6.9870 ha         1 1SX       0.145000
     25 H4          -2.4860    -1.9490     8.7740 ha         1 1SX       0.143000
     26 H5          -5.2600    -3.4620     5.8040 ha         1 1SX       0.143000
     27 H6          -3.6640    -2.8510     4.0140 ha         1 1SX       0.145000
     28 H7          -5.7870    -1.1020     8.6660 hc         1 1SX       0.039700
     29 H8          -5.9790    -2.1000    10.1680 hc         1 1SX       0.039700
     30 H9          -4.3700    -1.3720     9.7650 hc         1 1SX       0.039700
     31 H10         -0.4190    -1.8710     1.2520 h1         1 1SX       0.091200
     32 H11         -1.2940    -0.2850     0.9990 h1         1 1SX       0.091200
     33 H12         -0.7010     0.0610     5.2060 hn         1 1SX       0.344500
     34 H13         -3.9550    -5.0200     8.9210 hc         1 1SX       0.039700
     35 H14         -4.9200    -4.3740    10.3150 hc         1 1SX       0.039700
     36 H15         -3.3080    -3.6480     9.9160 hc         1 1SX       0.039700
     37 H16         -6.8750    -3.9820     8.9210 hc         1 1SX       0.039700
     38 H17         -6.0050    -4.6830     7.4970 hc         1 1SX       0.039700
     39 H18         -6.7700    -3.0360     7.3810 hc         1 1SX       0.039700
@<TRIPOS>BOND
     1     1    12 1   
     2     1    13 1   
     3     1    22 1   
     4     1    23 1   
     5     2    14 1   
     6     2    17 2   
     7     2    18 1   
     8     3     4 1   
     9     3    18 1   
    10     3    19 2   
    11     4     5 ar  
    12     4     9 ar  
    13     5     6 ar  
    14     5    24 1   
    15     6     7 ar  
    16     6    25 1   
    17     7     8 ar  
    18     7    10 1   
    19     8     9 ar  
    20     8    26 1   
    21     9    27 1   
    22    10    11 1   
    23    10    20 1   
    24    10    21 1   
    25    11    28 1   
    26    11    29 1   
    27    11    30 1   
    28    12    15 1   
    29    13    14 1   
    30    13    31 1   
    31    13    32 1   
    32    14    15 1   
    33    15    16 2   
    34    16    17 1   
    35    18    33 1   
    36    20    34 1   
    37    20    35 1   
    38    20    36 1   
    39    21    37 1   
    40    21    38 1   
    41    21    39 1   
@<TRIPOS>SUBSTRUCTURE
     1 1SX         1 TEMP              0 ****  ****    0 ROOT
