@<TRIPOS>MOLECULE
1T4
   33    36     1     0     0
SMALL
bcc


@<TRIPOS>ATOM
      1 C1           0.0000     0.0000     0.0000 ca         1 1T4      -0.026000
      2 C2           1.4730     0.0000     0.0000 ca         1 1T4      -0.102400
      3 C3           2.1190     0.0000     1.1460 ca         1 1T4      -0.142000
      4 C4           1.4340     0.0010     2.4450 ca         1 1T4      -0.049000
      5 C5           0.1250     0.0010     2.5410 ca         1 1T4      -0.056000
      6 C6          -0.6830     0.0020     1.3080 ca         1 1T4       0.003000
      7 C7          -1.9860     0.0020     1.3680 ca         1 1T4      -0.013000
      8 C8          -2.6760     0.0040     2.6710 ca         1 1T4      -0.023000
      9 C9          -3.9880     0.0050     2.6970 ca         1 1T4      -0.091000
     10 C10         -4.7910     0.0050     1.4680 ca         1 1T4      -0.090000
     11 C11         -4.2540     0.0020     0.2660 ca         1 1T4      -0.094000
     12 C12         -2.7880     0.0010     0.1300 ca         1 1T4      -0.027000
     13 C13         -2.1850    -0.0000    -1.0350 ca         1 1T4      -0.088000
     14 C14         -0.7080     0.0050    -1.1040 ca         1 1T4      -0.105000
     15 C15         -1.8750     0.0040     3.9060 ca         1 1T4      -0.098000
     16 C16         -0.5570     0.0020     3.8450 ca         1 1T4      -0.076000
     17 N1           2.1570    -0.0020    -1.1700 ns         1 1T4      -0.005100
     18 C17          3.4070    -0.5040    -1.2200 c          1 1T4       0.549100
     19 O18          3.8810    -1.0490    -0.2450 o          1 1T4      -0.625100
     20 C19          4.2160    -0.3890    -2.4870 c3         1 1T4      -0.069100
     21 H1           3.2020     0.0010     1.1310 ha         1 1T4       0.158000
     22 H2           2.0270     0.0000     3.3510 ha         1 1T4       0.103000
     23 H3          -4.4950     0.0070     3.6550 ha         1 1T4       0.103000
     24 H4          -5.8710     0.0060     1.5530 ha         1 1T4       0.098000
     25 H5          -4.8850     0.0020    -0.6150 ha         1 1T4       0.106000
     26 H6          -2.7690    -0.0070    -1.9470 ha         1 1T4       0.107000
     27 H7          -0.2110    -0.0350    -2.0660 ha         1 1T4       0.099000
     28 H8          -2.3710     0.0040     4.8700 ha         1 1T4       0.106000
     29 H9           0.0250     0.0020     4.7580 ha         1 1T4       0.105000
     30 H10          1.7480     0.4020    -1.9890 hn         1 1T4       0.167500
     31 H11          3.6940    -0.8880    -3.2950 hc         1 1T4       0.025033
     32 H12          4.3510     0.6570    -2.7350 hc         1 1T4       0.025033
     33 H13          5.1840    -0.8530    -2.3410 hc         1 1T4       0.025033
@<TRIPOS>BOND
     1     1     2 ar  
     2     1     6 ar  
     3     1    14 ar  
     4     2     3 ar  
     5     2    17 1   
     6     3     4 ar  
     7     3    21 1   
     8     4     5 ar  
     9     4    22 1   
    10     5     6 ar  
    11     5    16 ar  
    12     6     7 ar  
    13     7     8 ar  
    14     7    12 ar  
    15     8     9 ar  
    16     8    15 ar  
    17     9    10 ar  
    18     9    23 1   
    19    10    11 ar  
    20    10    24 1   
    21    11    12 ar  
    22    11    25 1   
    23    12    13 ar  
    24    13    14 ar  
    25    13    26 1   
    26    14    27 1   
    27    15    16 ar  
    28    15    28 1   
    29    16    29 1   
    30    17    18 1   
    31    17    30 1   
    32    18    19 2   
    33    18    20 1   
    34    20    31 1   
    35    20    32 1   
    36    20    33 1   
@<TRIPOS>SUBSTRUCTURE
     1 1T4         1 TEMP              0 ****  ****    0 ROOT
