@<TRIPOS>MOLECULE
1T4
   33    36     1     0     0
SMALL
bcc


@<TRIPOS>ATOM
      1 C1          -0.0850     0.0550    -0.1650 ca         1 1T4      -0.033000
      2 C2           1.3330     0.0340    -0.2050 ca         1 1T4       0.049600
      3 C3           2.0550    -0.0860     1.0020 ca         1 1T4      -0.141000
      4 C4           1.4020    -0.2040     2.2200 ca         1 1T4      -0.108000
      5 C5           0.0040    -0.2120     2.2840 ca         1 1T4      -0.033000
      6 C6          -0.7440    -0.0790     1.0860 ca         1 1T4      -0.010000
      7 C7          -2.1790    -0.0740     1.1480 ca         1 1T4      -0.017000
      8 C8          -2.8400    -0.2140     2.3970 ca         1 1T4      -0.034000
      9 C9          -4.2400    -0.2110     2.4380 ca         1 1T4      -0.112000
     10 C10         -4.9810    -0.0690     1.2670 ca         1 1T4      -0.125000
     11 C11         -4.3420     0.0730     0.0380 ca         1 1T4      -0.111000
     12 C12         -2.9430     0.0740    -0.0370 ca         1 1T4      -0.035000
     13 C13         -2.2480     0.2270    -1.2870 ca         1 1T4      -0.111000
     14 C14         -0.8930     0.2170    -1.3470 ca         1 1T4      -0.120000
     15 C15         -2.0480    -0.3530     3.5900 ca         1 1T4      -0.110000
     16 C16         -0.6930    -0.3500     3.5350 ca         1 1T4      -0.117000
     17 N1           2.0420     0.1730    -1.4170 ns         1 1T4      -0.502100
     18 C17          2.1590    -0.8160    -2.3820 c          1 1T4       0.665100
     19 O18          2.8700    -0.5790    -3.3790 o          1 1T4      -0.606100
     20 C19          1.4390    -2.1250    -2.2050 c3         1 1T4      -0.170100
     21 H1           3.1570    -0.0850     0.9830 ha         1 1T4       0.142000
     22 H2           1.9880    -0.2980     3.1470 ha         1 1T4       0.139000
     23 H3          -4.7540    -0.3210     3.4050 ha         1 1T4       0.135000
     24 H4          -6.0800    -0.0690     1.3140 ha         1 1T4       0.135000
     25 H5          -4.9350     0.1870    -0.8820 ha         1 1T4       0.136000
     26 H6          -2.8550     0.3560    -2.1970 ha         1 1T4       0.137000
     27 H7          -0.3850     0.3480    -2.3160 ha         1 1T4       0.144000
     28 H8          -2.5790    -0.4610     4.5480 ha         1 1T4       0.136000
     29 H9          -0.0860    -0.4540     4.4480 ha         1 1T4       0.135000
     30 H10          2.6110     0.9850    -1.5100 hn         1 1T4       0.329500
     31 H11          0.3490    -1.9560    -2.0240 hc         1 1T4       0.071367
     32 H12          1.8680    -2.6800    -1.3360 hc         1 1T4       0.071367
     33 H13          1.5700    -2.7360    -3.1310 hc         1 1T4       0.071367
@<TRIPOS>BOND
     1     1     2 ar  
     2     1     6 ar  
     3     1    14 ar  
     4     2     3 ar  
     5     2    17 1   
     6     3     4 ar  
     7     3    21 1   
     8     4     5 ar  
     9     4    22 1   
    10     5     6 ar  
    11     5    16 ar  
    12     6     7 ar  
    13     7     8 ar  
    14     7    12 ar  
    15     8     9 ar  
    16     8    15 ar  
    17     9    10 ar  
    18     9    23 1   
    19    10    11 ar  
    20    10    24 1   
    21    11    12 ar  
    22    11    25 1   
    23    12    13 ar  
    24    13    14 ar  
    25    13    26 1   
    26    14    27 1   
    27    15    16 ar  
    28    15    28 1   
    29    16    29 1   
    30    17    18 1   
    31    17    30 1   
    32    18    19 2   
    33    18    20 1   
    34    20    31 1   
    35    20    32 1   
    36    20    33 1   
@<TRIPOS>SUBSTRUCTURE
     1 1T4         1 TEMP              0 ****  ****    0 ROOT
