@<TRIPOS>MOLECULE
molecule
   33    36     1     0     0
SMALL
bcc


@<TRIPOS>ATOM
      1 C1           0.0000     0.0000     0.0000 ca         1 1T4      -0.036000
      2 C2           1.4730     0.0000     0.0000 ca         1 1T4       0.051600
      3 C3           2.1190     0.0000     1.1460 ca         1 1T4      -0.158000
      4 C4           1.4340     0.0010     2.4450 ca         1 1T4      -0.079000
      5 C5           0.1250     0.0010     2.5410 ca         1 1T4      -0.058000
      6 C6          -0.6830     0.0020     1.3080 ca         1 1T4      -0.002000
      7 C7          -1.9860     0.0020     1.3680 ca         1 1T4      -0.018000
      8 C8          -2.6760     0.0040     2.6710 ca         1 1T4      -0.025000
      9 C9          -3.9880     0.0050     2.6970 ca         1 1T4      -0.117000
     10 C10         -4.7910     0.0050     1.4680 ca         1 1T4      -0.117000
     11 C11         -4.2540     0.0020     0.2660 ca         1 1T4      -0.121000
     12 C12         -2.7880     0.0010     0.1300 ca         1 1T4      -0.027000
     13 C13         -2.1850    -0.0000    -1.0350 ca         1 1T4      -0.116000
     14 C14         -0.7080     0.0050    -1.1040 ca         1 1T4      -0.122000
     15 C15         -1.8750     0.0040     3.9060 ca         1 1T4      -0.124000
     16 C16         -0.5570     0.0020     3.8450 ca         1 1T4      -0.104000
     17 N1           2.1570    -0.0020    -1.1700 ns         1 1T4      -0.460100
     18 C17          3.4070    -0.5040    -1.2200 c          1 1T4       0.653100
     19 O18          3.8810    -1.0490    -0.2450 o          1 1T4      -0.586100
     20 C19          4.2160    -0.3890    -2.4870 c3         1 1T4      -0.171100
     21 H1           3.2020     0.0010     1.1310 ha         1 1T4       0.173000
     22 H2           2.0270     0.0000     3.3510 ha         1 1T4       0.133000
     23 H3          -4.4950     0.0070     3.6550 ha         1 1T4       0.129000
     24 H4          -5.8710     0.0060     1.5530 ha         1 1T4       0.127000
     25 H5          -4.8850     0.0020    -0.6150 ha         1 1T4       0.134000
     26 H6          -2.7690    -0.0070    -1.9470 ha         1 1T4       0.134000
     27 H7          -0.2110    -0.0350    -2.0660 ha         1 1T4       0.123000
     28 H8          -2.3710     0.0040     4.8700 ha         1 1T4       0.133000
     29 H9           0.0250     0.0020     4.7580 ha         1 1T4       0.134000
     30 H10          1.7480     0.4020    -1.9890 hn         1 1T4       0.324500
     31 H11          3.6940    -0.8880    -3.2950 hc         1 1T4       0.064700
     32 H12          4.3510     0.6570    -2.7350 hc         1 1T4       0.064700
     33 H13          5.1840    -0.8530    -2.3410 hc         1 1T4       0.064700
@<TRIPOS>BOND
     1    20    18 1   
     2    18    17 1   
     3    18    19 2   
     4    17     2 1   
     5     2     3 ar  
     6     2     1 ar  
     7     3     4 ar  
     8    14     1 ar  
     9    14    13 ar  
    10     1     6 ar  
    11     4     5 ar  
    12    13    12 ar  
    13     6     5 ar  
    14     6     7 ar  
    15     5    16 ar  
    16    12     7 ar  
    17    12    11 ar  
    18     7     8 ar  
    19    16    15 ar  
    20    11    10 ar  
    21     8    15 ar  
    22     8     9 ar  
    23    10     9 ar  
    24     3    21 1   
    25     4    22 1   
    26     9    23 1   
    27    10    24 1   
    28    11    25 1   
    29    13    26 1   
    30    14    27 1   
    31    15    28 1   
    32    16    29 1   
    33    17    30 1   
    34    20    31 1   
    35    20    32 1   
    36    20    33 1   
@<TRIPOS>SUBSTRUCTURE
     1 1T4         1 TEMP              0 ****  ****    0 ROOT
