@<TRIPOS>MOLECULE
1T5
   83    87     1     0     0
SMALL
bcc


@<TRIPOS>ATOM
      1 C1           0.0000     0.0000     0.0000 ca         1 1T5      -0.096000
      2 C2           1.3830     0.0000     0.0000 ca         1 1T5      -0.095500
      3 C3          -0.6910     0.0080     1.1980 ca         1 1T5      -0.095500
      4 C4           4.0570     5.9160     9.0720 ca         1 1T5      -0.104000
      5 C5           4.9870     6.9200     9.2210 ca         1 1T5      -0.119000
      6 C6           1.3100    -3.6500     5.7880 ca         1 1T5      -0.061000
      7 C7           2.0740     0.0000     1.1970 ca         1 1T5      -0.106500
      8 C8           0.0010     0.0130     2.3940 ca         1 1T5      -0.106500
      9 C9           1.4100    -2.4710     6.4920 ca         1 1T5      -0.140000
     10 C10          2.9360     3.3280     6.8910 ca         1 1T5       0.014000
     11 C11          1.3740     4.5780     8.2400 ca         1 1T5      -0.099000
     12 C12          5.0770     7.2200     6.8220 ca         1 1T5       0.066000
     13 C13          1.7560    -2.4490     3.7390 ca         1 1T5      -0.007000
     14 C14          0.7560     2.4410     7.3300 ca         1 1T5      -0.077000
     15 C15          3.6280     5.5440     7.7990 cp         1 1T5       0.070000
     16 C16          2.6270     4.4640     7.6410 cp         1 1T5      -0.020000
     17 C17          5.5030     7.5780     8.1000 ca         1 1T5      -0.272600
     18 C18          1.4820    -3.6460     4.4030 ca         1 1T5      -0.301900
     19 C19          4.1460     6.1970     6.6650 ca         1 1T5      -0.095600
     20 C20          1.3820     0.0010     2.3940 ca         1 1T5      -0.099300
     21 C21          2.0010     2.3250     6.7400 ca         1 1T5      -0.113300
     22 C22          1.8470    -1.2670     4.4470 ca         1 1T5      -0.107300
     23 C23          1.6770    -1.2770     5.8260 ca         1 1T5       0.100600
     24 C24          0.4420     3.5620     8.0880 ca         1 1T5      -0.105400
     25 C26          6.4910     8.6640     8.2710 c          1 1T5       0.349700
     26 C27          3.6940     5.8080     5.3150 c          1 1T5       0.953200
     27 C28         -1.9060     3.1820     8.0760 c          1 1T5       0.562100
     28 C29          1.7290     1.2210     4.5270 c3         1 1T5      -0.042400
     29 C30          2.3370     1.0990     5.9300 c3         1 1T5       0.174800
     30 C31          2.1370     0.0080     3.6990 c3         1 1T5       0.049600
     31 C32          3.6370     0.0990     3.4160 c3         1 1T5      -0.019100
     32 C33         -5.6990     2.8460     8.4590 c3         1 1T5      -0.001600
     33 C34         -4.3700     3.4760     6.4390 c3         1 1T5      -0.001600
     34 C35         -3.2700     3.3890     8.6820 c3         1 1T5      -0.098400
     35 C36         -4.3300     2.7460     7.7840 c3         1 1T5      -0.035700
     36 N37          1.5350    -4.9030     2.3460 n2         1 1T5      -0.533100
     37 N38          1.7660    -0.0960     6.5650 nu         1 1T5      -0.347600
     38 N39          1.1030    -6.0890     4.2950 nz         1 1T5       0.188400
     39 N40          6.9030     9.0110     9.5060 nz         1 1T5       0.195600
     40 N41         -0.8130     3.6670     8.6980 ns         1 1T5      -0.039100
     41 O42          6.9310     9.2430     7.2970 o          1 1T5      -0.444100
     42 O43          2.7910     5.0060     5.1840 o          1 1T5      -0.841800
     43 O44         -1.7930     2.5810     7.0290 o          1 1T5      -0.634100
     44 O45          4.2850     6.3420     4.2270 o          1 1T5      -0.841800
     45 H46         -0.5420    -0.0020    -0.9380 ha         1 1T5       0.108000
     46 H47          1.9240    -0.0030    -0.9380 ha         1 1T5       0.108000
     47 H48         -1.7740     0.0130     1.1980 ha         1 1T5       0.108000
     48 H49          3.6620     5.4100     9.9440 ha         1 1T5       0.114000
     49 H50          5.3200     7.2040    10.2120 ha         1 1T5       0.064000
     50 H51          1.0970    -4.5760     6.3060 ha         1 1T5       0.074000
     51 H52          3.1570    -0.0050     1.1970 ha         1 1T5       0.119000
     52 H53         -0.5410     0.0170     3.3330 ha         1 1T5       0.119000
     53 H54          1.2770    -2.4710     7.5670 ha         1 1T5       0.126000
     54 H55          3.9100     3.2350     6.4250 ha         1 1T5       0.116000
     55 H56          1.1310     5.4550     8.8270 ha         1 1T5       0.102000
     56 H57          5.4770     7.7280     5.9530 ha         1 1T5       0.162000
     57 H58          1.8900    -2.4460     2.6640 ha         1 1T5       0.121000
     58 H59          0.0260     1.6490     7.2110 ha         1 1T5       0.146000
     59 H60          0.6490     1.2600     4.6040 hc         1 1T5       0.068200
     60 H61          2.0970     2.1230     4.0520 hc         1 1T5       0.068200
     61 H62          3.4070     0.9590     5.8320 h1         1 1T5       0.031700
     62 H64          4.0560     0.4250     4.3610 hc         1 1T5       0.021367
     63 H63          4.0320    -0.8720     3.1400 hc         1 1T5       0.021367
     64 H65          3.8350     0.8280     2.6400 hc         1 1T5       0.021367
     65 H68         -5.6650     2.3470     9.4200 hc         1 1T5       0.007367
     66 H67         -5.9560     3.8880     8.6030 hc         1 1T5       0.007367
     67 H66         -6.4460     2.3730     7.8330 hc         1 1T5       0.007367
     68 H70         -5.3720     3.4280     6.0310 hc         1 1T5       0.007367
     69 H69         -3.6770     3.0050     5.7520 hc         1 1T5       0.007367
     70 H71         -4.0870     4.5120     6.5820 hc         1 1T5       0.007367
     71 H73         -3.3030     2.9320     9.6630 hc         1 1T5       0.030200
     72 H72         -3.4680     4.4510     8.7710 hc         1 1T5       0.030200
     73 H74         -4.0820     1.7040     7.6220 hc         1 1T5       0.034700
     74 H75          1.7320    -4.0470     1.8660 hn         1 1T5       0.385400
     75 H76          2.2430    -0.2760     7.4260 hn         1 1T5       0.265800
     76 H78          1.8250    -6.2740     4.9640 hn         1 1T5       0.217800
     77 H79          7.5700     9.7540     9.4390 hn         1 1T5       0.239467
     78 H80          7.3270     8.2210     9.9510 hn         1 1T5       0.239467
     79 H81         -0.8920     4.0600     9.6150 hn         1 1T5       0.162500
     80 H77          0.2220    -6.0210     4.7660 hn         1 1T5       0.217800
     81 H393         1.0670    -6.8350     3.6290 hn         1 1T5       0.217800
     82 H403         6.1170     9.3130    10.0480 hn         1 1T5       0.239467
     83 C25          1.3740    -4.9070     3.6390 ce         1 1T5       0.232800
@<TRIPOS>BOND
     1     1     2 ar  
     2     1     3 ar  
     3     1    45 1   
     4     2     7 ar  
     5     2    46 1   
     6     3     8 ar  
     7     3    47 1   
     8     4     5 ar  
     9     4    15 ar  
    10     4    48 1   
    11     5    17 ar  
    12     5    49 1   
    13     6     9 ar  
    14     6    18 ar  
    15     6    50 1   
    16     7    20 ar  
    17     7    51 1   
    18     8    20 ar  
    19     8    52 1   
    20     9    23 ar  
    21     9    53 1   
    22    10    16 ar  
    23    10    21 ar  
    24    10    54 1   
    25    11    16 ar  
    26    11    24 ar  
    27    11    55 1   
    28    12    17 ar  
    29    12    19 ar  
    30    12    56 1   
    31    13    18 ar  
    32    13    22 ar  
    33    13    57 1   
    34    14    21 ar  
    35    14    24 ar  
    36    14    58 1   
    37    15    16 1   
    38    15    19 ar  
    39    17    25 1   
    40    18    83 1   
    41    19    26 1   
    42    20    30 1   
    43    21    29 1   
    44    22    23 ar  
    45    22    30 1   
    46    23    37 1   
    47    24    40 1   
    48    25    39 1   
    49    25    41 2   
    50    26    42 1   
    51    26    44 1   
    52    27    34 1   
    53    27    40 1   
    54    27    43 2   
    55    28    29 1   
    56    28    30 1   
    57    28    59 1   
    58    28    60 1   
    59    29    37 1   
    60    29    61 1   
    61    30    31 1   
    62    31    62 1   
    63    31    63 1   
    64    31    64 1   
    65    32    35 1   
    66    32    65 1   
    67    32    66 1   
    68    32    67 1   
    69    33    35 1   
    70    33    68 1   
    71    33    69 1   
    72    33    70 1   
    73    34    35 1   
    74    34    71 1   
    75    34    72 1   
    76    35    73 1   
    77    36    74 1   
    78    36    83 2   
    79    37    75 1   
    80    38    76 1   
    81    38    80 1   
    82    38    81 1   
    83    38    83 1   
    84    39    77 1   
    85    39    78 1   
    86    39    82 1   
    87    40    79 1   
@<TRIPOS>SUBSTRUCTURE
     1 1T5         1 TEMP              0 ****  ****    0 ROOT
