@<TRIPOS>MOLECULE
molecule
   83    87     1     0     0
SMALL
bcc


@<TRIPOS>ATOM
      1 C1           0.0000     0.0000     0.0000 ca         1 1T5      -0.123000
      2 C2           1.3830     0.0000     0.0000 ca         1 1T5      -0.124000
      3 C3          -0.6910     0.0080     1.1980 ca         1 1T5      -0.124000
      4 C4           4.0570     5.9160     9.0720 ca         1 1T5      -0.127000
      5 C5           4.9870     6.9200     9.2210 ca         1 1T5      -0.143000
      6 C6           1.3100    -3.6500     5.7880 ca         1 1T5      -0.113000
      7 C7           2.0740     0.0000     1.1970 ca         1 1T5      -0.122000
      8 C8           0.0010     0.0130     2.3940 ca         1 1T5      -0.122000
      9 C9           1.4100    -2.4710     6.4920 ca         1 1T5      -0.142000
     10 C10          2.9360     3.3280     6.8910 ca         1 1T5      -0.014000
     11 C11          1.3740     4.5780     8.2400 ca         1 1T5      -0.129000
     12 C12          5.0770     7.2200     6.8220 ca         1 1T5       0.017000
     13 C13          1.7560    -2.4490     3.7390 ca         1 1T5      -0.004000
     14 C14          0.7560     2.4410     7.3300 ca         1 1T5      -0.114000
     15 C15          3.6280     5.5440     7.7990 cp         1 1T5       0.051000
     16 C16          2.6270     4.4640     7.6410 cp         1 1T5      -0.015000
     17 C17          5.5030     7.5780     8.1000 ca         1 1T5      -0.242600
     18 C18          1.4820    -3.6460     4.4030 ca         1 1T5      -0.246900
     19 C19          4.1460     6.1970     6.6650 ca         1 1T5      -0.090600
     20 C20          1.3820     0.0010     2.3940 ca         1 1T5      -0.088300
     21 C21          2.0010     2.3250     6.7400 ca         1 1T5      -0.092300
     22 C22          1.8470    -1.2670     4.4470 ca         1 1T5      -0.115300
     23 C23          1.6770    -1.2770     5.8260 ca         1 1T5       0.197600
     24 C24          0.4420     3.5620     8.0880 ca         1 1T5       0.045600
     25 C26          6.4910     8.6640     8.2710 c          1 1T5       0.498700
     26 C27          3.6940     5.8080     5.3150 c          1 1T5       0.868200
     27 C28         -1.9060     3.1820     8.0760 c          1 1T5       0.662100
     28 C29          1.7290     1.2210     4.5270 c3         1 1T5      -0.105400
     29 C30          2.3370     1.0990     5.9300 c3         1 1T5       0.237800
     30 C31          2.1370     0.0080     3.6990 c3         1 1T5       0.027600
     31 C32          3.6370     0.0990     3.4160 c3         1 1T5      -0.089100
     32 C33         -5.6990     2.8460     8.4590 c3         1 1T5      -0.090100
     33 C34         -4.3700     3.4760     6.4390 c3         1 1T5      -0.090100
     34 C35         -3.2700     3.3890     8.6820 c3         1 1T5      -0.154400
     35 C36         -4.3300     2.7460     7.7840 c3         1 1T5      -0.060700
     36 N37          1.5350    -4.9030     2.3460 n2         1 1T5      -0.700100
     37 N38          1.7660    -0.0960     6.5650 nu         1 1T5      -0.716600
     38 N39          1.1030    -6.0890     4.2950 nz         1 1T5      -0.801600
     39 N40          6.9030     9.0110     9.5060 nz         1 1T5      -0.677400
     40 N41         -0.8130     3.6670     8.6980 ns         1 1T5      -0.481100
     41 O42          6.9310     9.2430     7.2970 o          1 1T5      -0.432100
     42 O43          2.7910     5.0060     5.1840 o          1 1T5      -0.792300
     43 O44         -1.7930     2.5810     7.0290 o          1 1T5      -0.601100
     44 O45          4.2850     6.3420     4.2270 o          1 1T5      -0.792300
     45 H46         -0.5420    -0.0020    -0.9380 ha         1 1T5       0.134000
     46 H47          1.9240    -0.0030    -0.9380 ha         1 1T5       0.134000
     47 H48         -1.7740     0.0130     1.1980 ha         1 1T5       0.134000
     48 H49          3.6620     5.4100     9.9440 ha         1 1T5       0.143000
     49 H50          5.3200     7.2040    10.2120 ha         1 1T5       0.086000
     50 H51          1.0970    -4.5760     6.3060 ha         1 1T5       0.097000
     51 H52          3.1570    -0.0050     1.1970 ha         1 1T5       0.136000
     52 H53         -0.5410     0.0170     3.3330 ha         1 1T5       0.136000
     53 H54          1.2770    -2.4710     7.5670 ha         1 1T5       0.158000
     54 H55          3.9100     3.2350     6.4250 ha         1 1T5       0.147000
     55 H56          1.1310     5.4550     8.8270 ha         1 1T5       0.128000
     56 H57          5.4770     7.7280     5.9530 ha         1 1T5       0.197000
     57 H58          1.8900    -2.4460     2.6640 ha         1 1T5       0.176000
     58 H59          0.0260     1.6490     7.2110 ha         1 1T5       0.145000
     59 H60          0.6490     1.2600     4.6040 hc         1 1T5       0.089700
     60 H61          2.0970     2.1230     4.0520 hc         1 1T5       0.089700
     61 H62          3.4070     0.9590     5.8320 h1         1 1T5       0.082700
     62 H64          4.0560     0.4250     4.3610 hc         1 1T5       0.049367
     63 H63          4.0320    -0.8720     3.1400 hc         1 1T5       0.049367
     64 H65          3.8350     0.8270     2.6400 hc         1 1T5       0.049367
     65 H68         -6.4460     2.3730     7.8330 hc         1 1T5       0.039033
     66 H67         -5.9560     3.8880     8.6030 hc         1 1T5       0.039033
     67 H66         -5.6650     2.3470     9.4200 hc         1 1T5       0.039033
     68 H70         -3.6770     3.0050     5.7520 hc         1 1T5       0.039033
     69 H69         -5.3720     3.4280     6.0310 hc         1 1T5       0.039033
     70 H71         -4.0880     4.5120     6.5820 hc         1 1T5       0.039033
     71 H73         -3.3030     2.9320     9.6630 hc         1 1T5       0.062200
     72 H72         -3.4680     4.4510     8.7710 hc         1 1T5       0.062200
     73 H74         -4.0820     1.7040     7.6220 hc         1 1T5       0.058700
     74 H75          1.4620    -5.7560     1.8280 hn         1 1T5       0.423400
     75 H76          0.8680     0.1260     6.9480 hn         1 1T5       0.409800
     76 H78          1.8240    -6.2740     4.9640 hn         1 1T5       0.460467
     77 H79          7.3270     8.2210     9.9510 hn         1 1T5       0.468133
     78 H80          7.5700     9.7540     9.4390 hn         1 1T5       0.468133
     79 H81         -0.8910     4.0560     9.6160 hn         1 1T5       0.321500
     80 H77          0.2220    -6.0210     4.7660 hn         1 1T5       0.460467
     81 H393         1.0670    -6.8360     3.6300 hn         1 1T5       0.460467
     82 H403         6.1170     9.3130    10.0480 hn         1 1T5       0.468133
     83 C25          1.3740    -4.9070     3.6390 ce         1 1T5       0.553800
@<TRIPOS>BOND
     1    36    83 2   
     2    38    83 1   
     3    83    18 1   
     4    18     6 ar  
     5    18    13 ar  
     6     6     9 ar  
     7    13    22 ar  
     8     9    23 ar  
     9    22    23 ar  
    10    22    30 1   
    11     3     8 ar  
    12     3     1 ar  
    13     8    20 ar  
    14    31    30 1   
    15     1     2 ar  
    16    20     7 ar  
    17    20    30 1   
    18     7     2 ar  
    19    23    37 1   
    20    30    28 1   
    21    37    29 1   
    22    28    29 1   
    23    29    21 1   
    24    42    26 1   
    25    21    10 ar  
    26    21    14 ar  
    27    10    16 ar  
    28    14    24 ar  
    29    26    44 1   
    30    26    19 1   
    31    16    15 1   
    32    16    11 ar  
    33    19    15 ar  
    34    19    12 ar  
    35    24    11 ar  
    36    24    40 1   
    37    15     4 ar  
    38    12    17 ar  
    39    40    27 1   
    40     4     5 ar  
    41    17     5 ar  
    42    17    25 1   
    43    34    27 1   
    44    34    35 1   
    45    27    43 2   
    46    39    25 1   
    47    25    41 2   
    48    35    32 1   
    49    35    33 1   
    50     1    45 1   
    51     2    46 1   
    52     3    47 1   
    53     4    48 1   
    54     5    49 1   
    55     6    50 1   
    56     7    51 1   
    57     8    52 1   
    58     9    53 1   
    59    10    54 1   
    60    11    55 1   
    61    12    56 1   
    62    13    57 1   
    63    14    58 1   
    64    28    59 1   
    65    28    60 1   
    66    29    61 1   
    67    31    62 1   
    68    31    63 1   
    69    31    64 1   
    70    32    65 1   
    71    32    66 1   
    72    32    67 1   
    73    33    68 1   
    74    33    69 1   
    75    33    70 1   
    76    34    71 1   
    77    34    72 1   
    78    35    73 1   
    79    36    74 1   
    80    37    75 1   
    81    38    76 1   
    82    39    77 1   
    83    39    78 1   
    84    40    79 1   
    85    38    80 1   
    86    81    38 1   
    87    82    39 1   
@<TRIPOS>SUBSTRUCTURE
     1 1T5         1 TEMP              0 ****  ****    0 ROOT
