@<TRIPOS>MOLECULE
1T5
   83    87     1     0     0
SMALL
bcc


@<TRIPOS>ATOM
      1 C1           0.0600     1.9510     0.3590 ca         1 1T5      -0.131000
      2 C2           1.3060     1.3400     0.2140 ca         1 1T5      -0.136000
      3 C3          -0.6090     1.8650     1.5780 ca         1 1T5      -0.136000
      4 C4           5.3760    -6.7400     0.5220 ca         1 1T5      -0.143000
      5 C5           6.4970    -7.1440    -0.1860 ca         1 1T5      -0.053000
      6 C6           5.8890     1.2050     4.2440 ca         1 1T5      -0.021000
      7 C7           1.8760     0.6520     1.2820 ca         1 1T5      -0.134500
      8 C8          -0.0410     1.1730     2.6490 ca         1 1T5      -0.134500
      9 C9           5.6360    -0.1450     4.3180 ca         1 1T5      -0.194000
     10 C10          3.9240    -4.1980     2.6610 ca         1 1T5      -0.095000
     11 C11          3.4730    -6.5750     2.8140 ca         1 1T5      -0.126000
     12 C12          7.8400    -5.6310     1.1560 ca         1 1T5      -0.075000
     13 C13          3.5300     1.6350     3.8280 ca         1 1T5      -0.041000
     14 C14          2.1230    -4.9880     4.0720 ca         1 1T5      -0.152000
     15 C15          5.4670    -5.8000     1.5690 cp         1 1T5       0.077000
     16 C16          4.2580    -5.5160     2.3440 cp         1 1T5      -0.049000
     17 C17          7.7550    -6.6120     0.1570 ca         1 1T5      -0.238600
     18 C18          4.8390     2.1130     4.0000 ca         1 1T5      -0.336900
     19 C19          6.7130    -5.2150     1.8680 ca         1 1T5      -0.114600
     20 C20          1.2090     0.5600     2.5140 ca         1 1T5      -0.081300
     21 C21          2.9100    -3.9470     3.5880 ca         1 1T5      -0.101300
     22 C22          3.2520     0.2810     3.8820 ca         1 1T5      -0.173300
     23 C23          4.2990    -0.6460     4.1960 ca         1 1T5       0.269600
     24 C24          2.3680    -6.3200     3.6530 ca         1 1T5       0.067600
     25 C26          8.9240    -7.1390    -0.5130 c          1 1T5       0.590700
     26 C27          7.0440    -4.2140     2.9870 c          1 1T5       0.926200
     27 C28          1.4650    -8.6540     3.6880 c          1 1T5       0.673100
     28 C29          1.8980    -1.6970     3.2030 c3         1 1T5      -0.086400
     29 C30          2.7510    -2.5520     4.1480 c3         1 1T5       0.259800
     30 C31          1.8520    -0.2230     3.6360 c3         1 1T5       0.052600
     31 C32          1.0670    -0.1020     4.9400 c3         1 1T5      -0.090100
     32 C33          0.9420    -9.0040     6.7570 c3         1 1T5      -0.099100
     33 C34          2.1370   -10.8620     5.6040 c3         1 1T5      -0.099100
     34 C35          0.4200    -9.5420     4.3460 c3         1 1T5      -0.152400
     35 C36          0.8420   -10.0850     5.7020 c3         1 1T5      -0.062700
     36 N37          5.6760     4.2510     4.8440 n2         1 1T5      -0.707100
     37 N38          4.0460    -1.9610     4.4560 nu         1 1T5      -0.705600
     38 N39          4.6620     4.0990     2.5740 nz         1 1T5      -0.906600
     39 N40         10.2370    -6.9700     0.2620 nz         1 1T5      -0.768400
     40 N41          1.5200    -7.3350     4.1230 ns         1 1T5      -0.475100
     41 O42          9.0610    -7.7400    -1.5690 o          1 1T5      -0.449100
     42 O43          6.3920    -3.1390     3.0940 o          1 1T5      -0.813800
     43 O44          2.2020    -9.0940     2.7860 o          1 1T5      -0.597100
     44 O45          8.0400    -4.5180     3.6930 o          1 1T5      -0.813800
     45 C25          5.1250     3.5460     3.9510 ce         1 1T5       0.674800
     46 H46         -0.3980     2.4830    -0.4880 ha         1 1T5       0.140000
     47 H47          1.8300     1.3840    -0.7530 ha         1 1T5       0.137500
     48 H48         -1.5980     2.3340     1.6970 ha         1 1T5       0.137500
     49 H49          4.3920    -7.1750     0.2750 ha         1 1T5       0.165000
     50 H50          6.4150    -7.8860    -0.9960 ha         1 1T5       0.156000
     51 H51          6.9180     1.5770     4.3730 ha         1 1T5       0.144000
     52 H52          2.8540     0.1620     1.1570 ha         1 1T5       0.140500
     53 H53         -0.6010     1.1120     3.5940 ha         1 1T5       0.140500
     54 H54          6.4630    -0.8680     4.4540 ha         1 1T5       0.195000
     55 H55          4.5080    -3.3710     2.2160 ha         1 1T5       0.185000
     56 H56          3.7380    -7.6090     2.5360 ha         1 1T5       0.176000
     57 H57          8.7950    -5.1560     1.4380 ha         1 1T5       0.141000
     58 H58          2.6940     2.3340     3.6600 ha         1 1T5       0.122000
     59 H59          1.3190    -4.7690     4.7920 ha         1 1T5       0.133000
     60 H60          0.8580    -2.1130     3.1910 hc         1 1T5       0.068200
     61 H61          2.3100    -1.7720     2.1630 hc         1 1T5       0.068200
     62 H62          2.2040    -2.6300     5.1410 h1         1 1T5       0.068700
     63 H64          1.6150    -0.6180     5.7640 hc         1 1T5       0.045700
     64 H63          0.0590    -0.5700     4.8360 hc         1 1T5       0.045700
     65 H65          0.9460     0.9720     5.2210 hc         1 1T5       0.045700
     66 H68          0.9720    -9.4700     7.7720 hc         1 1T5       0.041367
     67 H67          1.8730    -8.4020     6.6310 hc         1 1T5       0.041367
     68 H66          0.0590    -8.3220     6.7110 hc         1 1T5       0.041367
     69 H70          2.4370   -11.2390     6.6110 hc         1 1T5       0.041367
     70 H69          2.9560   -10.2140     5.2060 hc         1 1T5       0.041367
     71 H71          2.0160   -11.7340     4.9170 hc         1 1T5       0.041367
     72 H73         -0.5510    -8.9890     4.4470 hc         1 1T5       0.073700
     73 H72          0.2520   -10.4050     3.6460 hc         1 1T5       0.073700
     74 H74          0.0270   -10.8000     6.0200 hc         1 1T5       0.058700
     75 H75          5.8980     5.2150     4.7340 hn         1 1T5       0.446400
     76 H76          4.8400    -2.5890     4.4350 hn         1 1T5       0.494800
     77 H78          4.7470     5.1110     2.4910 hn         1 1T5       0.446800
     78 H79         10.0880    -7.2330     1.2410 hn         1 1T5       0.463133
     79 H80         10.5280    -5.9890     0.2310 hn         1 1T5       0.463133
     80 H81          0.9100    -7.0790     4.8680 hn         1 1T5       0.320500
     81 H77          3.6840     3.8280     2.4320 hn         1 1T5       0.446800
     82 H393         5.2260     3.6490     1.8500 hn         1 1T5       0.446800
     83 H403        10.9690    -7.5530    -0.1510 hn         1 1T5       0.463133
@<TRIPOS>BOND
     1     1     2 ar  
     2     1     3 ar  
     3     1    46 1   
     4     2     7 ar  
     5     2    47 1   
     6     3     8 ar  
     7     3    48 1   
     8     4     5 ar  
     9     4    15 ar  
    10     4    49 1   
    11     5    17 ar  
    12     5    50 1   
    13     6     9 ar  
    14     6    18 ar  
    15     6    51 1   
    16     7    20 ar  
    17     7    52 1   
    18     8    20 ar  
    19     8    53 1   
    20     9    23 ar  
    21     9    54 1   
    22    10    16 ar  
    23    10    21 ar  
    24    10    55 1   
    25    11    16 ar  
    26    11    24 ar  
    27    11    56 1   
    28    12    17 ar  
    29    12    19 ar  
    30    12    57 1   
    31    13    18 ar  
    32    13    22 ar  
    33    13    58 1   
    34    14    21 ar  
    35    14    24 ar  
    36    14    59 1   
    37    15    16 1   
    38    15    19 ar  
    39    17    25 1   
    40    18    45 1   
    41    19    26 1   
    42    20    30 1   
    43    21    29 1   
    44    22    23 ar  
    45    22    30 1   
    46    23    37 1   
    47    24    40 1   
    48    25    39 1   
    49    25    41 2   
    50    26    42 1   
    51    26    44 1   
    52    27    34 1   
    53    27    40 1   
    54    27    43 2   
    55    28    29 1   
    56    28    30 1   
    57    28    60 1   
    58    28    61 1   
    59    29    37 1   
    60    29    62 1   
    61    30    31 1   
    62    31    63 1   
    63    31    64 1   
    64    31    65 1   
    65    32    35 1   
    66    32    66 1   
    67    32    67 1   
    68    32    68 1   
    69    33    35 1   
    70    33    69 1   
    71    33    70 1   
    72    33    71 1   
    73    34    35 1   
    74    34    72 1   
    75    34    73 1   
    76    35    74 1   
    77    36    45 2   
    78    36    75 1   
    79    37    76 1   
    80    38    45 1   
    81    38    77 1   
    82    38    81 1   
    83    38    82 1   
    84    39    78 1   
    85    39    79 1   
    86    39    83 1   
    87    40    80 1   
@<TRIPOS>SUBSTRUCTURE
     1 1T5         1 TEMP              0 ****  ****    0 ROOT
