@<TRIPOS>MOLECULE
molecule
   67    71     1     0     0
SMALL
bcc


@<TRIPOS>ATOM
      1 C13          0.0000     0.0000     0.0000 ca         1 1T6      -0.099000
      2 C18          3.5530     0.0150    -3.6780 ca         1 1T6      -0.229600
      3 C17          2.1390     0.0000    -1.2800 cp         1 1T6       0.051000
      4 C16          1.3960     0.0000     0.0000 cp         1 1T6      -0.037000
      5 C15         -6.1160     0.4320     2.6710 ca         1 1T6       0.004000
      6 C19         -6.6670    -0.5530     3.4910 ca         1 1T6      -0.260900
      7 C20          3.0480    -1.0370    -1.5690 ca         1 1T6      -0.089600
      8 C21         -4.7690     2.7560     1.8130 ca         1 1T6      -0.092300
      9 C22         -0.6870     0.0060     1.1960 ca         1 1T6      -0.133300
     10 C23         -4.8010     0.3410     2.2630 ca         1 1T6      -0.132300
     11 C24         -4.0260    -0.7360     2.6760 ca         1 1T6       0.206600
     12 C11          0.0050     0.0100     2.3950 ca         1 1T6      -0.090000
     13 C12         -4.5740    -1.7230     3.4930 ca         1 1T6      -0.167000
     14 C27          3.2630    -2.1260    -0.5960 c          1 1T6       0.868200
     15 C1          -5.7420     5.2140     2.6240 ca         1 1T6      -0.122000
     16 C2          -6.0120     4.7500     1.3500 ca         1 1T6      -0.124500
     17 C3          -4.9890     4.4470     3.4940 ca         1 1T6      -0.124500
     18 C4           1.3880     0.0110     2.4020 ca         1 1T6      -0.136000
     19 C5           2.0870     0.0000     1.2120 ca         1 1T6       0.004000
     20 C6           1.9420     1.0250    -2.2020 ca         1 1T6      -0.139000
     21 C7           2.6440     1.0370    -3.3860 ca         1 1T6      -0.169000
     22 C8          -5.8850    -1.6320     3.9040 ca         1 1T6      -0.094000
     23 C9          -5.5270     3.5210     0.9450 ca         1 1T6      -0.127500
     24 C10         -4.5030     3.2190     3.0880 ca         1 1T6      -0.127500
     25 C14          3.7510    -1.0240    -2.7690 ca         1 1T6       0.019000
     26 C25         -8.0790    -0.4530     3.9210 ce         1 1T6       0.555800
     27 C28         -2.7120     1.4290     1.4430 c3         1 1T6      -0.072400
     28 C29         -2.1940     0.0060     1.1980 c3         1 1T6       0.240800
     29 C30         -4.2390     1.4160     1.3710 c3         1 1T6       0.028600
     30 C31         -4.6720     1.1530    -0.0720 c3         1 1T6      -0.091100
     31 N32         -8.8080     0.5560     3.5350 n2         1 1T6      -0.707100
     32 N33         -2.6900    -0.8470     2.2860 nu         1 1T6      -0.685600
     33 N34         -8.6220    -1.4270     4.7310 nz         1 1T6      -0.801600
     34 N35          4.1050     1.0340    -5.8320 nz         1 1T6      -0.676400
     35 O36          5.0840    -0.8600    -5.2100 o          1 1T6      -0.434100
     36 O37          2.5630    -2.2020     0.3950 o          1 1T6      -0.790800
     37 O38          4.2330    -3.0360    -0.8070 o          1 1T6      -0.790800
     38 H51         -0.5430    -0.0040    -0.9380 ha         1 1T6       0.118000
     39 H53         -6.7240     1.2700     2.3510 ha         1 1T6       0.174000
     40 H49         -0.5390     0.0170     3.3320 ha         1 1T6       0.131000
     41 H50         -3.9650    -2.5600     3.8120 ha         1 1T6       0.162000
     42 H39         -6.1230     6.1770     2.9420 ha         1 1T6       0.137000
     43 H40         -6.6040     5.3490     0.6690 ha         1 1T6       0.136000
     44 H41         -4.7780     4.8100     4.4930 ha         1 1T6       0.136000
     45 H42          1.9240     0.0130     3.3430 ha         1 1T6       0.139000
     46 H43          3.1700     0.0000     1.2180 ha         1 1T6       0.153000
     47 H44          1.2430     1.8230    -1.9800 ha         1 1T6       0.140000
     48 H45          2.4190     1.9590    -3.9090 ha         1 1T6       0.108000
     49 H46         -6.3090    -2.3990     4.5410 ha         1 1T6       0.101000
     50 H47         -5.7370     3.1580    -0.0530 ha         1 1T6       0.136000
     51 H48         -3.9110     2.6190     3.7690 ha         1 1T6       0.136000
     52 H52          4.4690    -1.7970    -3.0150 ha         1 1T6       0.196000
     53 H54         -2.3190     2.0940     0.6830 hc         1 1T6       0.072700
     54 H55         -2.3990     1.7640     2.4240 hc         1 1T6       0.072700
     55 H56         -2.6020    -0.3550     0.2610 h1         1 1T6       0.048700
     56 H59         -3.9910     0.3790    -0.4050 hc         1 1T6       0.047367
     57 H58         -4.5560     2.0470    -0.6730 hc         1 1T6       0.047367
     58 H57         -5.6960     0.8000    -0.1040 hc         1 1T6       0.047367
     59 H60         -9.7640     0.6260     3.8240 hn         1 1T6       0.423400
     60 H61         -2.4800    -1.8040     2.0820 hn         1 1T6       0.412800
     61 H63         -9.5790    -1.2060     4.9230 hn         1 1T6       0.461467
     62 H64          4.6780     0.8850    -6.6390 hn         1 1T6       0.468467
     63 H65          4.3590     1.9000    -5.3980 hn         1 1T6       0.468467
     64 H62         -8.5720    -2.3140     4.2680 hn         1 1T6       0.461467
     65 H343        -8.1120    -1.4700     5.5910 hn         1 1T6       0.461467
     66 H353         3.1420     1.0420    -6.1040 hn         1 1T6       0.468467
     67 C26          4.2970     0.0310    -4.9540 c          1 1T6       0.495700
@<TRIPOS>BOND
     1    17    24 ar
     2    17    15 ar
     3    24     8 ar
     4    15    16 ar
     5    30    29 1
     6     8    29 1
     7     8    23 ar
     8    16    23 ar
     9    29    27 1
    10    29    10 1
    11    27    28 1
    12    12    18 ar
    13    12     9 ar
    14    18    19 ar
    15    28     9 1
    16    28    32 1
    17     9     1 ar
    18    10     5 ar
    19    10    11 ar
    20     5     6 ar
    21    19     4 ar
    22    31    26 2
    23     1     4 ar
    24    32    11 1
    25     4     3 1
    26    11    13 ar
    27     6    26 1
    28     6    22 ar
    29    26    33 1
    30    20     3 ar
    31    20    21 ar
    32     3     7 ar
    33    13    22 ar
    34    21     2 ar
    35     7    14 1
    36     7    25 ar
    37    36    14 1
    38    14    37 1
    39     2    25 ar
    40     2    67 1
    41    35    67 2
    42    67    34 1
    43     1    38 1
    44     5    39 1
    45    12    40 1
    46    13    41 1
    47    15    42 1
    48    16    43 1
    49    17    44 1
    50    18    45 1
    51    19    46 1
    52    20    47 1
    53    21    48 1
    54    22    49 1
    55    23    50 1
    56    24    51 1
    57    25    52 1
    58    27    53 1
    59    27    54 1
    60    28    55 1
    61    30    56 1
    62    30    57 1
    63    30    58 1
    64    31    59 1
    65    32    60 1
    66    33    61 1
    67    34    62 1
    68    34    63 1
    69    33    64 1
    70    65    33 1
    71    66    34 1
@<TRIPOS>SUBSTRUCTURE
     1 1T6         1 TEMP              0 ****  ****    0 ROOT
