@<TRIPOS>MOLECULE
1T6
   67    71     1     0     0
SMALL
bcc


@<TRIPOS>ATOM
      1 C13          0.0000     0.0000     0.0000 ca         1 1T6      -0.074000
      2 C18          3.5530     0.0150    -3.6780 ca         1 1T6      -0.237600
      3 C17          2.1390     0.0000    -1.2800 cp         1 1T6       0.068000
      4 C16          1.3960     0.0000     0.0000 cp         1 1T6      -0.035000
      5 C15         -6.1160     0.4320     2.6710 ca         1 1T6      -0.006000
      6 C19         -6.6670    -0.5530     3.4910 ca         1 1T6      -0.302900
      7 C20          3.0480    -1.0370    -1.5690 ca         1 1T6      -0.094600
      8 C21         -4.7690     2.7560     1.8130 ca         1 1T6      -0.103300
      9 C22         -0.6870     0.0060     1.1960 ca         1 1T6      -0.147300
     10 C23         -4.8010     0.3410     2.2630 ca         1 1T6      -0.122300
     11 C24         -4.0260    -0.7360     2.6760 ca         1 1T6       0.099600
     12 C11          0.0050     0.0100     2.3950 ca         1 1T6      -0.073000
     13 C12         -4.5740    -1.7230     3.4930 ca         1 1T6      -0.132000
     14 C27          3.2630    -2.1260    -0.5960 c          1 1T6       0.954200
     15 C1          -5.7420     5.2140     2.6240 ca         1 1T6      -0.094000
     16 C2          -6.0120     4.7500     1.3500 ca         1 1T6      -0.094500
     17 C3          -4.9890     4.4470     3.4940 ca         1 1T6      -0.094500
     18 C4           1.3880     0.0110     2.4020 ca         1 1T6      -0.104000
     19 C5           2.0870     0.0000     1.2120 ca         1 1T6       0.034000
     20 C6           1.9420     1.0250    -2.2020 ca         1 1T6      -0.120000
     21 C7           2.6440     1.0370    -3.3860 ca         1 1T6      -0.168000
     22 C8          -5.8850    -1.6320     3.9040 ca         1 1T6      -0.056000
     23 C9          -5.5270     3.5210     0.9450 ca         1 1T6      -0.112500
     24 C10         -4.5030     3.2190     3.0880 ca         1 1T6      -0.112500
     25 C14          3.7510    -1.0240    -2.7690 ca         1 1T6       0.058000
     26 C25         -8.0790    -0.4530     3.9210 ce         1 1T6       0.234800
     27 C28         -2.7120     1.4290     1.4430 c3         1 1T6      -0.033400
     28 C29         -2.1940     0.0060     1.1980 c3         1 1T6       0.176800
     29 C30         -4.2390     1.4160     1.3710 c3         1 1T6       0.051600
     30 C31         -4.6720     1.1530    -0.0720 c3         1 1T6      -0.020100
     31 N32         -8.8080     0.5560     3.5350 n2         1 1T6      -0.533100
     32 N33         -2.6900    -0.8470     2.2860 nu         1 1T6      -0.343600
     33 N34         -8.6220    -1.4270     4.7310 nz         1 1T6       0.188400
     34 N35          4.1050     1.0340    -5.8320 nz         1 1T6       0.200600
     35 O36          5.0840    -0.8600    -5.2100 o          1 1T6      -0.445100
     36 O37          2.5630    -2.2020     0.3950 o          1 1T6      -0.840800
     37 O38          4.2330    -3.0360    -0.8070 o          1 1T6      -0.840800
     38 H51         -0.5430    -0.0040    -0.9380 ha         1 1T6       0.094000
     39 H53         -6.7240     1.2700     2.3510 ha         1 1T6       0.118000
     40 H49         -0.5390     0.0170     3.3320 ha         1 1T6       0.102000
     41 H50         -3.9650    -2.5600     3.8120 ha         1 1T6       0.134000
     42 H39         -6.1230     6.1770     2.9420 ha         1 1T6       0.111000
     43 H40         -6.6040     5.3490     0.6690 ha         1 1T6       0.110000
     44 H41         -4.7780     4.8100     4.4930 ha         1 1T6       0.110000
     45 H42          1.9240     0.0130     3.3430 ha         1 1T6       0.109000
     46 H43          3.1700     0.0000     1.2180 ha         1 1T6       0.121000
     47 H44          1.2400     1.8210    -1.9820 ha         1 1T6       0.112000
     48 H45          2.3300     1.9600    -3.8590 ha         1 1T6       0.103000
     49 H46         -6.3090    -2.3990     4.5410 ha         1 1T6       0.078000
     50 H47         -5.7370     3.1580    -0.0530 ha         1 1T6       0.118000
     51 H48         -3.9110     2.6190     3.7690 ha         1 1T6       0.118000
     52 H52          4.4010    -1.8610    -2.9950 ha         1 1T6       0.165000
     53 H54         -2.3190     2.0940     0.6830 hc         1 1T6       0.044700
     54 H55         -2.3990     1.7640     2.4240 hc         1 1T6       0.044700
     55 H56         -2.6020    -0.3550     0.2610 h1         1 1T6       0.031700
     56 H59         -3.9910     0.3800    -0.4050 hc         1 1T6       0.020700
     57 H58         -5.6950     0.8000    -0.1040 hc         1 1T6       0.020700
     58 H57         -4.5560     2.0470    -0.6730 hc         1 1T6       0.020700
     59 H60         -8.4140     1.2640     2.9470 hn         1 1T6       0.382400
     60 H61         -2.4800    -1.8040     2.0820 hn         1 1T6       0.283800
     61 H63         -9.5800    -1.2070     4.9220 hn         1 1T6       0.219467
     62 H64          4.6820     0.8880    -6.6370 hn         1 1T6       0.237467
     63 H65          3.1450     1.0650    -6.1120 hn         1 1T6       0.237467
     64 H62         -8.1120    -1.4690     5.5910 hn         1 1T6       0.219467
     65 H343        -8.5700    -2.3140     4.2680 hn         1 1T6       0.219467
     66 H353         4.3440     1.9080    -5.4060 hn         1 1T6       0.237467
     67 C26          4.2970     0.0310    -4.9540 c          1 1T6       0.347700
@<TRIPOS>BOND
     1     1     4 ar  
     2     1     9 ar  
     3     1    38 1   
     4     2    21 ar  
     5     2    25 ar  
     6     2    67 1   
     7     3     4 1   
     8     3     7 ar  
     9     3    20 ar  
    10     4    19 ar  
    11     5     6 ar  
    12     5    10 ar  
    13     5    39 1   
    14     6    22 ar  
    15     6    26 1   
    16     7    14 1   
    17     7    25 ar  
    18     8    23 ar  
    19     8    24 ar  
    20     8    29 1   
    21     9    12 ar  
    22     9    28 1   
    23    10    11 ar  
    24    10    29 1   
    25    11    13 ar  
    26    11    32 1   
    27    12    18 ar  
    28    12    40 1   
    29    13    22 ar  
    30    13    41 1   
    31    14    36 1   
    32    14    37 1   
    33    15    16 ar  
    34    15    17 ar  
    35    15    42 1   
    36    16    23 ar  
    37    16    43 1   
    38    17    24 ar  
    39    17    44 1   
    40    18    19 ar  
    41    18    45 1   
    42    19    46 1   
    43    20    21 ar  
    44    20    47 1   
    45    21    48 1   
    46    22    49 1   
    47    23    50 1   
    48    24    51 1   
    49    25    52 1   
    50    26    31 2   
    51    26    33 1   
    52    27    28 1   
    53    27    29 1   
    54    27    53 1   
    55    27    54 1   
    56    28    32 1   
    57    28    55 1   
    58    29    30 1   
    59    30    56 1   
    60    30    57 1   
    61    30    58 1   
    62    31    59 1   
    63    32    60 1   
    64    33    61 1   
    65    33    64 1   
    66    33    65 1   
    67    34    62 1   
    68    34    63 1   
    69    34    66 1   
    70    34    67 1   
    71    35    67 2   
@<TRIPOS>SUBSTRUCTURE
     1 1T6         1 TEMP              0 ****  ****    0 ROOT
