@<TRIPOS>MOLECULE
1T6
   67    71     1     0     0
SMALL
bcc


@<TRIPOS>ATOM
      1 C13          0.0300    -0.3140    -0.0970 ca         1 1T6      -0.061000
      2 C18          3.5590     0.9640    -3.6560 ca         1 1T6      -0.238600
      3 C17          2.0810     0.2070    -1.3880 cp         1 1T6       0.083000
      4 C16          1.4220    -0.1830    -0.1420 cp         1 1T6      -0.077000
      5 C15         -5.8170    -0.3200    -0.9740 ca         1 1T6       0.002000
      6 C19         -6.0820     0.7360    -1.8610 ca         1 1T6      -0.338900
      7 C20          1.6440     1.2920    -2.1730 ca         1 1T6      -0.116600
      8 C21         -4.8520    -2.8180     0.1170 ca         1 1T6      -0.089300
      9 C22         -0.6220    -0.4850     1.1280 ca         1 1T6      -0.129300
     10 C23         -4.6240    -0.3740    -0.2720 ca         1 1T6      -0.176300
     11 C24         -3.6630     0.6750    -0.4260 ca         1 1T6       0.260600
     12 C11          0.1260    -0.6710     2.2930 ca         1 1T6      -0.093000
     13 C12         -3.9000     1.6770    -1.4260 ca         1 1T6      -0.186000
     14 C27          0.4620     2.2390    -1.9110 c          1 1T6       0.928200
     15 C1          -5.7320    -5.2580    -0.9590 ca         1 1T6      -0.124000
     16 C2          -4.9980    -4.3700    -1.7460 ca         1 1T6      -0.128500
     17 C3          -6.0230    -4.9280     0.3620 ca         1 1T6      -0.128500
     18 C4           1.5200    -0.6470     2.2320 ca         1 1T6      -0.138000
     19 C5           2.1690    -0.3800     1.0290 ca         1 1T6      -0.096000
     20 C6           3.2270    -0.5140    -1.7810 ca         1 1T6      -0.150000
     21 C7           3.9600    -0.1570    -2.9010 ca         1 1T6      -0.051000
     22 C8          -5.0890     1.7050    -2.1130 ca         1 1T6      -0.071000
     23 C9          -4.5610    -3.1610    -1.2120 ca         1 1T6      -0.126500
     24 C10         -5.5850    -3.7160     0.8990 ca         1 1T6      -0.126500
     25 C14          2.3920     1.6530    -3.2960 ca         1 1T6      -0.071000
     26 C25         -7.3650     0.7830    -2.5590 ce         1 1T6       0.674800
     27 C28         -2.8020    -1.6660     0.8180 c3         1 1T6      -0.086400
     28 C29         -2.1240    -0.3440     1.1940 c3         1 1T6       0.256800
     29 C30         -4.3250    -1.5150     0.6690 c3         1 1T6       0.055600
     30 C31         -4.9400    -1.1830     2.0260 c3         1 1T6      -0.089100
     31 N32         -7.8860    -0.1160    -3.2800 n2         1 1T6      -0.708100
     32 N33         -2.5760     0.7890     0.3930 nu         1 1T6      -0.703600
     33 N34         -8.0410     2.1500    -2.2570 nz         1 1T6      -0.905600
     34 N35          4.1900     2.8150    -5.2350 nz         1 1T6      -0.768400
     35 O36          5.2870     0.7920    -5.3670 o          1 1T6      -0.451100
     36 O37          0.7190     3.4620    -2.0550 o          1 1T6      -0.815800
     37 O38         -0.6840     1.7750    -1.6600 o          1 1T6      -0.815800
     38 C26          4.4000     1.3740    -4.7590 c          1 1T6       0.589700
     39 H51         -0.5450    -0.2290    -1.0380 ha         1 1T6       0.183000
     40 H53         -6.5580    -1.1270    -0.8410 ha         1 1T6       0.152000
     41 H49         -0.3790    -0.8230     3.2590 ha         1 1T6       0.138000
     42 H50         -3.0880     2.3940    -1.6580 ha         1 1T6       0.199000
     43 H39         -6.0750    -6.2160    -1.3790 ha         1 1T6       0.138000
     44 H40         -4.7600    -4.6260    -2.7900 ha         1 1T6       0.136500
     45 H41         -6.5970    -5.6250     0.9910 ha         1 1T6       0.136500
     46 H42          2.1100    -0.8120     3.1470 ha         1 1T6       0.142000
     47 H43          3.2670    -0.3010     1.0010 ha         1 1T6       0.136000
     48 H44          3.5470    -1.3810    -1.1780 ha         1 1T6       0.157000
     49 H45          4.8540    -0.7280    -3.1960 ha         1 1T6       0.155000
     50 H46         -5.2380     2.4660    -2.8950 ha         1 1T6       0.119000
     51 H47         -3.9820    -2.4640    -1.8380 ha         1 1T6       0.137000
     52 H48         -5.8230    -3.4890     1.9490 ha         1 1T6       0.137000
     53 H52          2.0180     2.5220    -3.8650 ha         1 1T6       0.143000
     54 H54         -2.3730    -2.0460    -0.1460 hc         1 1T6       0.069200
     55 H55         -2.5790    -2.4180     1.6160 hc         1 1T6       0.069200
     56 H56         -2.4080    -0.0950     2.2650 h1         1 1T6       0.069700
     57 H59         -4.6320    -0.1580     2.3470 hc         1 1T6       0.043367
     58 H58         -6.0540    -1.2120     1.9640 hc         1 1T6       0.043367
     59 H57         -4.5990    -1.9110     2.8000 hc         1 1T6       0.043367
     60 H60         -8.7930    -0.0490    -3.6850 hn         1 1T6       0.446400
     61 H61         -1.8490     1.4230     0.0860 hn         1 1T6       0.487800
     62 H63         -7.3670     2.8920    -2.4670 hn         1 1T6       0.446467
     63 H64          4.9420     3.0900    -5.8720 hn         1 1T6       0.462800
     64 H65          3.2910     2.8880    -5.7180 hn         1 1T6       0.462800
     65 H62         -8.8960     2.3080    -2.7870 hn         1 1T6       0.446467
     66 H343        -8.2490     2.1820    -1.2560 hn         1 1T6       0.446467
     67 H353         4.1730     3.4410    -4.4230 hn         1 1T6       0.462800
@<TRIPOS>BOND
     1     1     4 ar  
     2     1     9 ar  
     3     1    39 1   
     4     2    21 ar  
     5     2    25 ar  
     6     2    38 1   
     7     3     4 1   
     8     3     7 ar  
     9     3    20 ar  
    10     4    19 ar  
    11     5     6 ar  
    12     5    10 ar  
    13     5    40 1   
    14     6    22 ar  
    15     6    26 1   
    16     7    14 1   
    17     7    25 ar  
    18     8    23 ar  
    19     8    24 ar  
    20     8    29 1   
    21     9    12 ar  
    22     9    28 1   
    23    10    11 ar  
    24    10    29 1   
    25    11    13 ar  
    26    11    32 1   
    27    12    18 ar  
    28    12    41 1   
    29    13    22 ar  
    30    13    42 1   
    31    14    36 1   
    32    14    37 1   
    33    15    16 ar  
    34    15    17 ar  
    35    15    43 1   
    36    16    23 ar  
    37    16    44 1   
    38    17    24 ar  
    39    17    45 1   
    40    18    19 ar  
    41    18    46 1   
    42    19    47 1   
    43    20    21 ar  
    44    20    48 1   
    45    21    49 1   
    46    22    50 1   
    47    23    51 1   
    48    24    52 1   
    49    25    53 1   
    50    26    31 2   
    51    26    33 1   
    52    27    28 1   
    53    27    29 1   
    54    27    54 1   
    55    27    55 1   
    56    28    32 1   
    57    28    56 1   
    58    29    30 1   
    59    30    57 1   
    60    30    58 1   
    61    30    59 1   
    62    31    60 1   
    63    32    61 1   
    64    33    62 1   
    65    33    65 1   
    66    33    66 1   
    67    34    38 1   
    68    34    63 1   
    69    34    64 1   
    70    34    67 1   
    71    35    38 2   
@<TRIPOS>SUBSTRUCTURE
     1 1T6         1 TEMP              0 ****  ****    0 ROOT
