@<TRIPOS>MOLECULE
1T7
   61    65     1     0     0
SMALL
bcc


@<TRIPOS>ATOM
      1 C1           0.0000     0.0000     0.0000 cp         1 1T7      -0.040000
      2 C2           1.3920     0.0000     0.0000 ca         1 1T7      -0.127000
      3 C3           2.0820     0.0000     1.1960 ca         1 1T7      -0.131000
      4 C4           1.3990    -0.0010     2.4000 ca         1 1T7      -0.133000
      5 C5           0.0210    -0.0000     2.4210 ca         1 1T7      -0.061000
      6 C6          -0.6950     0.0060     1.2220 ca         1 1T7      -0.089600
      7 C7          -1.1440    -3.4360    -6.9100 ca         1 1T7      -0.131300
      8 C8          -2.3070    -3.2770    -6.1670 ca         1 1T7       0.103600
      9 N9          -2.3090    -2.5150    -4.9990 nu         1 1T7      -0.320600
     10 C10         -1.0260    -2.1300    -4.3960 c3         1 1T7       0.181800
     11 C11         -0.1070    -1.6420    -5.5240 c3         1 1T7      -0.035400
     12 C12          0.1540    -2.8020    -6.4850 c3         1 1T7       0.065900
     13 C13         -2.3530    -4.7970    -8.4840 ca         1 1T7      -0.317900
     14 C14         -3.5200    -4.6320    -7.7360 ca         1 1T7      -0.058000
     15 C15         -3.4920    -3.8780    -6.5830 ca         1 1T7      -0.140000
     16 C16         -1.1670    -4.1950    -8.0640 ca         1 1T7      -0.008000
     17 C17         -2.3740    -5.6090    -9.7180 ce         1 1T7       0.241800
     18 N18         -3.5460    -6.2040   -10.1330 nz         1 1T7       0.189400
     19 N19         -1.2840    -5.7630   -10.4160 n2         1 1T7      -0.557100
     20 C20          0.8840    -2.2940    -7.7010 ca         1 1T7      -0.099300
     21 C21         -1.2430    -1.0210    -3.3990 ca         1 1T7      -0.116300
     22 C22         -0.5470    -1.0240    -2.2060 ca         1 1T7      -0.141000
     23 C23         -0.7450     0.0010    -1.2810 cp         1 1T7       0.076000
     24 C24         -1.6460     1.0250    -1.5640 ca         1 1T7      -0.052000
     25 C25         -2.3410     1.0190    -2.7650 ca         1 1T7       0.046600
     26 C26         -2.1330    -0.0030    -3.6830 ca         1 1T7      -0.193000
     27 C27          2.1410    -2.7800    -8.0060 ca         1 1T7      -0.100000
     28 C28          2.8110    -2.3140    -9.1220 ca         1 1T7      -0.098500
     29 C29          2.2220    -1.3630    -9.9340 ca         1 1T7      -0.099000
     30 C30          0.9630    -0.8780    -9.6300 ca         1 1T7      -0.098500
     31 C31          0.2930    -1.3470    -8.5160 ca         1 1T7      -0.100000
     32 N32         -3.2470     2.0430    -3.0530 nv         1 1T7      -0.456200
     33 C33         -2.1700     0.0060     1.2380 c          1 1T7       0.969200
     34 O34         -2.8310     0.1340     2.4060 o          1 1T7      -0.878800
     35 O35         -2.7880    -0.1080     0.2000 o          1 1T7      -0.878800
     36 H36          1.9330    -0.0020    -0.9380 ha         1 1T7       0.089000
     37 H37          3.1660    -0.0000     1.1910 ha         1 1T7       0.085000
     38 H38          1.9520    -0.0030     3.3320 ha         1 1T7       0.088000
     39 H39         -0.5070     0.0020     3.3680 ha         1 1T7       0.133000
     40 H41         -0.5800    -2.9880    -3.9080 h1         1 1T7       0.027700
     41 H42         -0.6050    -0.8450    -6.0630 hc         1 1T7       0.047200
     42 H43          0.8350    -1.3220    -5.0950 hc         1 1T7       0.047200
     43 H44          0.7630    -3.5450    -5.9840 hc         1 1T7       0.043700
     44 H45         -4.4430    -5.0980    -8.0580 ha         1 1T7       0.073000
     45 H46         -4.3960    -3.7490    -6.0010 ha         1 1T7       0.133000
     46 H47         -0.2620    -4.3230    -8.6440 ha         1 1T7       0.115000
     47 H48         -3.3820    -6.7120   -10.9800 hn         1 1T7       0.216467
     48 H50         -0.4310    -5.3320   -10.1190 hn         1 1T7       0.384400
     49 H51          0.1510    -1.8230    -1.9880 ha         1 1T7       0.100000
     50 H52         -1.8080     1.8210    -0.8470 ha         1 1T7       0.129000
     51 H53         -2.6760    -0.0060    -4.6200 ha         1 1T7       0.095000
     52 H54          2.6030    -3.5250    -7.3700 ha         1 1T7       0.112500
     53 H55          3.7960    -2.6950    -9.3600 ha         1 1T7       0.107500
     54 H56          2.7470    -0.9960   -10.8080 ha         1 1T7       0.107000
     55 H57          0.5000    -0.1340   -10.2670 ha         1 1T7       0.107500
     56 H58         -0.6930    -0.9670    -8.2780 ha         1 1T7       0.112500
     57 H60         -3.3840     2.7880    -2.3980 hn         1 1T7       0.259800
     58 H59         -3.7540     2.0340    -3.9150 hn         1 1T7       0.259800
     59 H49         -4.2390    -5.5010   -10.2970 hn         1 1T7       0.216467
     60 H183        -3.8700    -6.8340    -9.4260 hn         1 1T7       0.216467
     61 H40         -2.8810    -2.9620    -4.3090 hn         1 1T7       0.286800
@<TRIPOS>BOND
     1     1     2 ar  
     2     1     6 ar  
     3     1    23 1   
     4     2     3 ar  
     5     2    36 1   
     6     3     4 ar  
     7     3    37 1   
     8     4     5 ar  
     9     4    38 1   
    10     5     6 ar  
    11     5    39 1   
    12     6    33 1   
    13     7     8 ar  
    14     7    12 1   
    15     7    16 ar  
    16     8     9 1   
    17     8    15 ar  
    18     9    10 1   
    19     9    61 1   
    20    10    11 1   
    21    10    21 1   
    22    10    40 1   
    23    11    12 1   
    24    11    41 1   
    25    11    42 1   
    26    12    20 1   
    27    12    43 1   
    28    13    14 ar  
    29    13    16 ar  
    30    13    17 1   
    31    14    15 ar  
    32    14    44 1   
    33    15    45 1   
    34    16    46 1   
    35    17    18 1   
    36    17    19 2   
    37    18    47 1   
    38    18    59 1   
    39    18    60 1   
    40    19    48 1   
    41    20    27 ar  
    42    20    31 ar  
    43    21    22 ar  
    44    21    26 ar  
    45    22    23 ar  
    46    22    49 1   
    47    23    24 ar  
    48    24    25 ar  
    49    24    50 1   
    50    25    26 ar  
    51    25    32 1   
    52    26    51 1   
    53    27    28 ar  
    54    27    52 1   
    55    28    29 ar  
    56    28    53 1   
    57    29    30 ar  
    58    29    54 1   
    59    30    31 ar  
    60    30    55 1   
    61    31    56 1   
    62    32    57 1   
    63    32    58 1   
    64    33    34 1   
    65    33    35 1   
@<TRIPOS>SUBSTRUCTURE
     1 1T7         1 TEMP              0 ****  ****    0 ROOT
