@<TRIPOS>MOLECULE
molecule
   61    65     1     0     0
SMALL
bcc


@<TRIPOS>ATOM
      1 C1           0.0000     0.0000     0.0000 cp         1 1T7      -0.045000
      2 C2           1.3920     0.0000     0.0000 ca         1 1T7      -0.143000
      3 C3           2.0820     0.0000     1.1960 ca         1 1T7      -0.154000
      4 C4           1.3990    -0.0010     2.4000 ca         1 1T7      -0.152000
      5 C5           0.0210    -0.0000     2.4210 ca         1 1T7      -0.092000
      6 C6          -0.6950     0.0060     1.2220 ca         1 1T7      -0.088600
      7 C7          -1.1440    -3.4360    -6.9100 ca         1 1T7      -0.141300
      8 C8          -2.3070    -3.2770    -6.1670 ca         1 1T7       0.213600
      9 N9          -2.3090    -2.5150    -4.9990 nu         1 1T7      -0.671600
     10 C10         -1.0260    -2.1300    -4.3960 c3         1 1T7       0.243800
     11 C11         -0.1070    -1.6420    -5.5240 c3         1 1T7      -0.074400
     12 C12          0.1540    -2.8020    -6.4850 c3         1 1T7       0.019900
     13 C13         -2.3530    -4.7970    -8.4840 ca         1 1T7      -0.272900
     14 C14         -3.5200    -4.6320    -7.7360 ca         1 1T7      -0.097000
     15 C15         -3.4920    -3.8780    -6.5830 ca         1 1T7      -0.172000
     16 C16         -1.1670    -4.1950    -8.0640 ca         1 1T7       0.003000
     17 C17         -2.3740    -5.6090    -9.7180 ce         1 1T7       0.559800
     18 N18         -3.5460    -6.2040   -10.1330 nz         1 1T7      -0.800600
     19 N19         -1.2840    -5.7630   -10.4160 n2         1 1T7      -0.718100
     20 C20          0.8840    -2.2940    -7.7010 ca         1 1T7      -0.088300
     21 C21         -1.2430    -1.0210    -3.3990 ca         1 1T7      -0.104300
     22 C22         -0.5470    -1.0240    -2.2060 ca         1 1T7      -0.160000
     23 C23         -0.7450     0.0010    -1.2810 cp         1 1T7       0.059000
     24 C24         -1.6460     1.0250    -1.5640 ca         1 1T7      -0.076000
     25 C25         -2.3410     1.0190    -2.7650 ca         1 1T7       0.189600
     26 C26         -2.1330    -0.0030    -3.6830 ca         1 1T7      -0.199000
     27 C27          2.1410    -2.7800    -8.0060 ca         1 1T7      -0.122000
     28 C28          2.8110    -2.3140    -9.1220 ca         1 1T7      -0.126500
     29 C29          2.2220    -1.3630    -9.9340 ca         1 1T7      -0.126000
     30 C30          0.9630    -0.8780    -9.6300 ca         1 1T7      -0.126500
     31 C31          0.2930    -1.3470    -8.5160 ca         1 1T7      -0.122000
     32 N32         -3.2470     2.0430    -3.0530 nv         1 1T7      -0.926200
     33 C33         -2.1700     0.0060     1.2380 c          1 1T7       0.876200
     34 O34         -2.8310     0.1340     2.4060 o          1 1T7      -0.828300
     35 O35         -2.7880    -0.1080     0.2000 o          1 1T7      -0.828300
     36 H36          1.9330    -0.0020    -0.9380 ha         1 1T7       0.110000
     37 H37          3.1660    -0.0000     1.1910 ha         1 1T7       0.107000
     38 H38          1.9520    -0.0030     3.3320 ha         1 1T7       0.111000
     39 H39         -0.5070     0.0020     3.3680 ha         1 1T7       0.160000
     40 H41         -0.5800    -2.9880    -3.9080 h1         1 1T7       0.049700
     41 H42         -0.6050    -0.8450    -6.0630 hc         1 1T7       0.076200
     42 H43          0.8350    -1.3220    -5.0950 hc         1 1T7       0.076200
     43 H44          0.7630    -3.5450    -5.9840 hc         1 1T7       0.070700
     44 H45         -4.4430    -5.0980    -8.0580 ha         1 1T7       0.094000
     45 H46         -4.3960    -3.7490    -6.0010 ha         1 1T7       0.161000
     46 H47         -0.2620    -4.3230    -8.6440 ha         1 1T7       0.170000
     47 H48         -3.8700    -6.8340    -9.4260 hn         1 1T7       0.458467
     48 H50         -1.2960    -6.3120   -11.2530 hn         1 1T7       0.417400
     49 H51          0.1520    -1.8220    -1.9880 ha         1 1T7       0.119000
     50 H52         -1.8080     1.8210    -0.8470 ha         1 1T7       0.153000
     51 H53         -2.6760    -0.0060    -4.6200 ha         1 1T7       0.113000
     52 H54          2.6030    -3.5250    -7.3700 ha         1 1T7       0.134500
     53 H55          3.7960    -2.6950    -9.3600 ha         1 1T7       0.132500
     54 H56          2.7470    -0.9960   -10.8080 ha         1 1T7       0.132000
     55 H57          0.5000    -0.1340   -10.2670 ha         1 1T7       0.132500
     56 H58         -0.6930    -0.9670    -8.2780 ha         1 1T7       0.134500
     57 H60         -3.3930     2.7820    -2.3930 hn         1 1T7       0.422800
     58 H59         -3.7480     2.0390    -3.9190 hn         1 1T7       0.422800
     59 H49         -3.3820    -6.7120   -10.9800 hn         1 1T7       0.458467
     60 H183        -4.2390    -5.5010   -10.2970 hn         1 1T7       0.458467
     61 H40         -2.8810    -2.9620    -4.3090 hn         1 1T7       0.416800
@<TRIPOS>BOND
     1    35    33 1   
     2    32    25 1   
     3    33     6 1   
     4    33    34 1   
     5     5     4 ar  
     6     5     6 ar  
     7     4     3 ar  
     8    24    25 ar  
     9    24    23 ar  
    10     6     1 ar  
    11     3     2 ar  
    12    25    26 ar  
    13     1     2 ar  
    14     1    23 1   
    15    23    22 ar  
    16    26    21 ar  
    17    22    21 ar  
    18    21    10 1   
    19     9    10 1   
    20     9     8 1   
    21    10    11 1   
    22    15     8 ar  
    23    15    14 ar  
    24     8     7 ar  
    25    11    12 1   
    26    14    13 ar  
    27     7    12 1   
    28     7    16 ar  
    29    12    20 1   
    30    13    16 ar  
    31    13    17 1   
    32    20    27 ar  
    33    20    31 ar  
    34    27    28 ar  
    35    18    17 1   
    36    31    30 ar  
    37    17    19 2   
    38    28    29 ar  
    39    30    29 ar  
    40     2    36 1   
    41     3    37 1   
    42     4    38 1   
    43     5    39 1   
    44     9    61 1   
    45    10    40 1   
    46    11    41 1   
    47    11    42 1   
    48    12    43 1   
    49    14    44 1   
    50    15    45 1   
    51    16    46 1   
    52    18    47 1   
    53    19    48 1   
    54    22    49 1   
    55    24    50 1   
    56    26    51 1   
    57    27    52 1   
    58    28    53 1   
    59    29    54 1   
    60    30    55 1   
    61    31    56 1   
    62    32    57 1   
    63    32    58 1   
    64    18    59 1   
    65    60    18 1   
@<TRIPOS>SUBSTRUCTURE
     1 1T7         1 TEMP              0 ****  ****    0 ROOT
