@<TRIPOS>MOLECULE
1T7
   61    65     1     0     0
SMALL
bcc


@<TRIPOS>ATOM
      1 C1          -0.6330    -0.1160     0.3420 cp         1 1T7      -0.038000
      2 C2           0.5300    -0.7530     0.8050 ca         1 1T7      -0.130000
      3 C3           0.6380    -1.1670     2.1290 ca         1 1T7      -0.151000
      4 C4          -0.4190    -0.9440     3.0120 ca         1 1T7      -0.137000
      5 C5          -1.5680    -0.2990     2.5670 ca         1 1T7      -0.112000
      6 C6          -1.6930     0.1230     1.2360 ca         1 1T7      -0.081600
      7 C7          -4.0740     5.0450    -1.9360 ca         1 1T7      -0.194300
      8 C8          -4.2750     3.7280    -1.4070 ca         1 1T7       0.262600
      9 N9          -3.8920     2.6140    -2.0920 nu         1 1T7      -0.700600
     10 C10         -2.8100     2.6860    -3.0740 c3         1 1T7       0.256800
     11 C11         -2.1740     4.0770    -3.1860 c3         1 1T7      -0.087400
     12 C12         -3.2400     5.1730    -3.1730 c3         1 1T7       0.036900
     13 C13         -5.3930     5.9800    -0.1250 ca         1 1T7      -0.346900
     14 C14         -5.4840     4.6960     0.4700 ca         1 1T7      -0.086000
     15 C15         -4.9500     3.5970    -0.1450 ca         1 1T7      -0.163000
     16 C16         -4.6460     6.1360    -1.3080 ca         1 1T7       0.011000
     17 C17         -5.9950     7.1480     0.4950 ce         1 1T7       0.688800
     18 N18         -7.3430     6.7450     1.1660 nz         1 1T7      -0.908600
     19 N19         -5.5510     8.3380     0.5140 n2         1 1T7      -0.755100
     20 C20         -2.5990     6.5170    -3.3250 ca         1 1T7      -0.082300
     21 C21         -1.7600     1.6440    -2.7650 ca         1 1T7      -0.094300
     22 C22         -1.4030     1.4260    -1.4340 ca         1 1T7      -0.121000
     23 C23         -0.7250     0.2550    -1.0720 cp         1 1T7       0.030000
     24 C24         -0.2310    -0.5860    -2.0730 ca         1 1T7      -0.166000
     25 C25         -0.4570    -0.2900    -3.4370 ca         1 1T7       0.115600
     26 C26         -1.2750     0.8120    -3.7730 ca         1 1T7      -0.175000
     27 C27         -1.6990     6.9980    -2.3640 ca         1 1T7      -0.123500
     28 C28         -1.0870     8.2390    -2.5330 ca         1 1T7      -0.131500
     29 C29         -1.3670     9.0110    -3.6600 ca         1 1T7      -0.131000
     30 C30         -2.2610     8.5390    -4.6190 ca         1 1T7      -0.131500
     31 C31         -2.8740     7.2970    -4.4540 ca         1 1T7      -0.123500
     32 N32          0.1500    -1.0600    -4.4450 nv         1 1T7      -0.807200
     33 C33         -2.9690     0.8530     0.8750 c          1 1T7       0.904200
     34 O34         -3.2660     1.8940     1.5350 o          1 1T7      -0.847800
     35 O35         -3.7250     0.4360    -0.0560 o          1 1T7      -0.847800
     36 H36          1.3680    -0.9210     0.1120 ha         1 1T7       0.121000
     37 H37          1.5540    -1.6650     2.4760 ha         1 1T7       0.118000
     38 H38         -0.3390    -1.2720     4.0590 ha         1 1T7       0.118000
     39 H39         -2.3970    -0.0940     3.2610 ha         1 1T7       0.141000
     40 H41         -3.2870     2.4340    -4.0720 h1         1 1T7       0.061700
     41 H42         -1.5910     4.1250    -4.1410 hc         1 1T7       0.067700
     42 H43         -1.4580     4.2350    -2.3370 hc         1 1T7       0.067700
     43 H44         -3.9250     4.9980    -4.0570 hc         1 1T7       0.059700
     44 H45         -5.9220     4.5640     1.4710 ha         1 1T7       0.111000
     45 H46         -4.9240     2.6040     0.3670 ha         1 1T7       0.239000
     46 H47         -4.5010     7.1410    -1.7380 ha         1 1T7       0.149000
     47 H48         -7.1430     6.3480     2.0860 hn         1 1T7       0.444467
     48 H50         -6.0590     9.1040     0.8920 hn         1 1T7       0.433400
     49 H51         -1.7140     2.1300    -0.6430 ha         1 1T7       0.160000
     50 H52          0.3160    -1.4980    -1.7910 ha         1 1T7       0.134000
     51 H53         -1.5430     1.0060    -4.8210 ha         1 1T7       0.123000
     52 H54         -1.4780     6.3900    -1.4730 ha         1 1T7       0.138000
     53 H55         -0.3800     8.6060    -1.7750 ha         1 1T7       0.132000
     54 H56         -0.8800     9.9880    -3.7940 ha         1 1T7       0.131000
     55 H57         -2.4810     9.1430    -5.5120 ha         1 1T7       0.132000
     56 H58         -3.5750     6.9290    -5.2190 ha         1 1T7       0.138000
     57 H60         -0.3650    -1.0640    -5.2990 hn         1 1T7       0.375800
     58 H59          0.3810    -1.9840    -4.1460 hn         1 1T7       0.375800
     59 H49         -7.9840     7.5270     1.2680 hn         1 1T7       0.444467
     60 H183        -7.7740     6.0190     0.5870 hn         1 1T7       0.444467
     61 H40         -3.9550     1.7310    -1.5850 hn         1 1T7       0.505800
@<TRIPOS>BOND
     1     1     2 ar  
     2     1     6 ar  
     3     1    23 1   
     4     2     3 ar  
     5     2    36 1   
     6     3     4 ar  
     7     3    37 1   
     8     4     5 ar  
     9     4    38 1   
    10     5     6 ar  
    11     5    39 1   
    12     6    33 1   
    13     7     8 ar  
    14     7    12 1   
    15     7    16 ar  
    16     8     9 1   
    17     8    15 ar  
    18     9    10 1   
    19     9    61 1   
    20    10    11 1   
    21    10    21 1   
    22    10    40 1   
    23    11    12 1   
    24    11    41 1   
    25    11    42 1   
    26    12    20 1   
    27    12    43 1   
    28    13    14 ar  
    29    13    16 ar  
    30    13    17 1   
    31    14    15 ar  
    32    14    44 1   
    33    15    45 1   
    34    16    46 1   
    35    17    18 1   
    36    17    19 2   
    37    18    47 1   
    38    18    59 1   
    39    18    60 1   
    40    19    48 1   
    41    20    27 ar  
    42    20    31 ar  
    43    21    22 ar  
    44    21    26 ar  
    45    22    23 ar  
    46    22    49 1   
    47    23    24 ar  
    48    24    25 ar  
    49    24    50 1   
    50    25    26 ar  
    51    25    32 1   
    52    26    51 1   
    53    27    28 ar  
    54    27    52 1   
    55    28    29 ar  
    56    28    53 1   
    57    29    30 ar  
    58    29    54 1   
    59    30    31 ar  
    60    30    55 1   
    61    31    56 1   
    62    32    57 1   
    63    32    58 1   
    64    33    34 1   
    65    33    35 1   
@<TRIPOS>SUBSTRUCTURE
     1 1T7         1 TEMP              0 ****  ****    0 ROOT
