@<TRIPOS>MOLECULE
molecule
   84    83     1     0     0
SMALL
bcc


@<TRIPOS>ATOM
      1 CAI          0.0000     0.0000     0.0000 c3         1 1T9      -0.082400
      2 CAJ          1.5300     0.0000     0.0000 c3         1 1T9      -0.082400
      3 CAK          2.0400     0.0000     1.4430 c3         1 1T9      -0.082400
      4 CAL          3.5700    -0.0000     1.4430 c3         1 1T9      -0.082400
      5 CAM          4.0800    -0.0000     2.8860 c3         1 1T9      -0.082400
      6 CAN          5.6100    -0.0010     2.8860 c3         1 1T9      -0.081400
      7 CAO          6.1190    -0.0010     4.3280 c3         1 1T9      -0.084400
      8 CAP          7.6490    -0.0020     4.3280 c3         1 1T9      -0.077400
      9 CAQ          8.1590    -0.0020     5.7710 c3         1 1T9      -0.041200
     10 CAE          9.6670    -0.0020     5.7710 c2         1 1T9      -0.211200
     11 CAD         10.3220     0.9270     6.4220 c2         1 1T9      -0.173200
     12 CAC         11.8290     0.9270     6.4220 c3         1 1T9       0.172300
     13 OAR         12.3050    -0.1060     5.5560 oh         1 1T9      -0.601800
     14 CAB         12.3390     2.2820     5.9280 c3         1 1T9       0.107700
     15 CAA         13.8690     2.2900     5.9510 c3         1 1T9       0.203400
     16 OBB         14.3280     1.9640     7.2650 os         1 1T9      -0.594200
     17 PAX         15.8880     1.8800     7.6530 p5         1 1T9       1.176900
     18 OAY         16.5540     3.1530     7.2970 o          1 1T9      -0.909167
     19 OAZ         16.0340     1.6210     9.2350 o          1 1T9      -0.909167
     20 OBA         16.5780     0.6700     6.8440 o          1 1T9      -0.909167
     21 NAW         11.8330     3.3420     6.8030 ns         1 1T9      -0.546900
     22 CAU         11.7050     4.5990     6.3340 c          1 1T9       0.662100
     23 OAV         12.0080     4.8520     5.1880 o          1 1T9      -0.638100
     24 CAT         11.1840     5.6900     7.2330 c3         1 1T9      -0.160400
     25 CBC         11.1370     7.0090     6.4610 c3         1 1T9      -0.064400
     26 CBD         10.6080     8.1180     7.3740 c3         1 1T9      -0.086400
     27 CBE         10.5610     9.4370     6.6010 c3         1 1T9      -0.080400
     28 CBF         10.0320    10.5440     7.5150 c3         1 1T9      -0.082400
     29 CBG          9.9850    11.8630     6.7420 c3         1 1T9      -0.084400
     30 CBH          9.4570    12.9720     7.6560 c3         1 1T9      -0.092100
     31 H1          -0.3610    -0.8850     0.5110 hc         1 1T9       0.039700
     32 H2          -0.3610     0.8850     0.5110 hc         1 1T9       0.039700
     33 H4           1.8910    -0.8850    -0.5110 hc         1 1T9       0.041200
     34 H5           1.8910     0.8850    -0.5110 hc         1 1T9       0.041200
     35 H6           1.6790    -0.8850     1.9540 hc         1 1T9       0.039200
     36 H7           1.6790     0.8850     1.9540 hc         1 1T9       0.039200
     37 H8           3.9310    -0.8850     0.9320 hc         1 1T9       0.041200
     38 H9           3.9310     0.8850     0.9320 hc         1 1T9       0.041200
     39 H10          3.7180    -0.8840     3.3970 hc         1 1T9       0.037700
     40 H11          3.7190     0.8850     3.3960 hc         1 1T9       0.037700
     41 H12          5.9710    -0.8860     2.3750 hc         1 1T9       0.042200
     42 H13          5.9720     0.8830     2.3750 hc         1 1T9       0.042200
     43 H14          5.7570    -0.8860     4.8390 hc         1 1T9       0.035200
     44 H15          5.7590     0.8840     4.8390 hc         1 1T9       0.035200
     45 H16          8.0110     0.8820     3.8170 hc         1 1T9       0.046700
     46 H17          8.0100    -0.8870     3.8180 hc         1 1T9       0.046700
     47 H18          7.7980     0.8820     6.2810 hc         1 1T9       0.031700
     48 H19          7.7980    -0.8870     6.2820 hc         1 1T9       0.031700
     49 H20         10.2080    -0.7710     5.2330 ha         1 1T9       0.143000
     50 H21          9.7800     1.6960     6.9600 ha         1 1T9       0.112000
     51 H22         12.1900     0.7500     7.4280 h1         1 1T9       0.091700
     52 H23         12.6080    -0.8340     6.0720 ho         1 1T9       0.413000
     53 H24         11.9920     2.4520     4.9160 h1         1 1T9       0.058700
     54 H25         14.2290     3.2740     5.6770 h1         1 1T9       0.036700
     55 H26         14.2440     1.5580     5.2460 h1         1 1T9       0.036700
     56 H29         11.5870     3.1340     7.7500 hn         1 1T9       0.311500
     57 H30         11.8390     5.7960     8.0900 hc         1 1T9       0.053700
     58 H31         10.1870     5.4340     7.5710 hc         1 1T9       0.053700
     59 H32         12.1340     7.2650     6.1230 hc         1 1T9       0.056700
     60 H33         10.4820     6.9040     5.6050 hc         1 1T9       0.056700
     61 H34          9.6110     7.8620     7.7120 hc         1 1T9       0.035200
     62 H35         11.2630     8.2230     8.2300 hc         1 1T9       0.035200
     63 H36          9.9060     9.3310     5.7450 hc         1 1T9       0.042200
     64 H37         11.5580     9.6930     6.2640 hc         1 1T9       0.042200
     65 H38          9.0360    10.2880     7.8530 hc         1 1T9       0.038200
     66 H39         10.6880    10.6500     8.3710 hc         1 1T9       0.038200
     67 H40         10.9820    12.1190     6.4030 hc         1 1T9       0.038700
     68 H41          9.3290    11.7570     5.8870 hc         1 1T9       0.038700
     69 H42          8.4600    12.7160     7.9950 hc         1 1T9       0.027367
     70 H43         10.1130    13.0790     8.5110 hc         1 1T9       0.027367
     71 H44          9.4230    13.9060     7.1080 hc         1 1T9       0.027367
     72 C1          -0.5100    -0.0000    -1.4430 c3         1 1T9      -0.082400
     73 C2          -2.0400     0.0010    -1.4430 c3         1 1T9      -0.081400
     74 C3          -2.5490     0.0010    -2.8850 c3         1 1T9      -0.084400
     75 C4          -4.0800     0.0020    -2.8850 c3         1 1T9      -0.092100
     76 H3          -0.1480     0.8840    -1.9540 hc         1 1T9       0.041200
     77 H45         -0.1490    -0.8850    -1.9530 hc         1 1T9       0.041200
     78 H46         -2.4010     0.8860    -0.9320 hc         1 1T9       0.040200
     79 H47         -2.4020    -0.8830    -0.9320 hc         1 1T9       0.040200
     80 H48         -2.1880     0.8860    -3.3960 hc         1 1T9       0.039700
     81 H49         -2.1890    -0.8840    -3.3960 hc         1 1T9       0.039700
     82 H50         -4.4400     0.8870    -2.3750 hc         1 1T9       0.030367
     83 H51         -4.4410    -0.8820    -2.3740 hc         1 1T9       0.030367
     84 H52         -4.4410     0.0020    -3.9060 hc         1 1T9       0.030367
@<TRIPOS>BOND
     1     1     2 1
     2     3     2 1
     3     3     4 1
     4     5     4 1
     5     5     6 1
     6     7     6 1
     7     7     8 1
     8     8     9 1
     9    30    29 1
    10    28    27 1
    11    28    29 1
    12    27    26 1
    13     9    10 1
    14    26    25 1
    15    10    11 2
    16    25    24 1
    17    11    12 1
    18    24    22 1
    19    12    13 1
    20    12    14 1
    21    21    22 1
    22    21    14 1
    23    22    23 2
    24    14    15 1
    25    15    16 1
    26    16    17 1
    27    18    17 1
    28    19    17 1
    29    17    20 1
    30     1    31 1
    31     1    32 1
    32     2    33 1
    33     2    34 1
    34     3    35 1
    35     3    36 1
    36     4    37 1
    37     4    38 1
    38     5    39 1
    39     5    40 1
    40     6    41 1
    41     6    42 1
    42     7    43 1
    43     7    44 1
    44     8    45 1
    45     8    46 1
    46     9    47 1
    47     9    48 1
    48    10    49 1
    49    11    50 1
    50    12    51 1
    51    13    52 1
    52    14    53 1
    53    15    54 1
    54    15    55 1
    55    21    56 1
    56    24    57 1
    57    24    58 1
    58    25    59 1
    59    25    60 1
    60    26    61 1
    61    26    62 1
    62    27    63 1
    63    27    64 1
    64    28    65 1
    65    28    66 1
    66    29    67 1
    67    29    68 1
    68    30    69 1
    69    30    70 1
    70    30    71 1
    71     1    72 1
    72    72    73 1
    73    73    74 1
    74    74    75 1
    75    72    76 1
    76    72    77 1
    77    73    78 1
    78    73    79 1
    79    74    80 1
    80    74    81 1
    81    75    82 1
    82    75    83 1
    83    75    84 1
@<TRIPOS>SUBSTRUCTURE
     1 1T9         1 TEMP              0 ****  ****    0 ROOT
