@<TRIPOS>MOLECULE
1T9
   84    85     1     0     0
SMALL
bcc


@<TRIPOS>ATOM
      1 CAI          0.0000     0.0000     0.0000 c3         1 1T9      -0.108000
      2 CAJ          1.5300     0.0000     0.0000 c3         1 1T9      -0.108000
      3 CAK          2.0400     0.0000     1.4430 c3         1 1T9      -0.108000
      4 CAL          3.5700    -0.0000     1.4430 c3         1 1T9      -0.109000
      5 CAM          4.0800    -0.0000     2.8860 c3         1 1T9      -0.109000
      6 CAN          5.6100    -0.0010     2.8860 c3         1 1T9      -0.109000
      7 CAO          6.1190    -0.0010     4.3280 c3         1 1T9      -0.113000
      8 CAP          7.6490    -0.0020     4.3280 c3         1 1T9      -0.138000
      9 CAQ          8.1590    -0.0020     5.7710 DU         1 1T9      -0.006000
     10 CAE          9.6670    -0.0020     5.7710 c2         1 1T9      -0.116000
     11 CAD         10.3220     0.9270     6.4220 c2         1 1T9      -0.274000
     12 CAC         11.8290     0.9270     6.4220 DU         1 1T9       0.209000
     13 OAR         12.3050    -0.1060     5.5560 oh         1 1T9      -0.295000
     14 CAB         12.3390     2.2820     5.9280 c3         1 1T9      -0.128000
     15 CAA         13.8690     2.2900     5.9510 c3         1 1T9       0.113000
     16 OBB         14.3280     1.9640     7.2650 os         1 1T9      -0.661000
     17 PAX         15.8880     1.8800     7.6530 p5         1 1T9       0.934500
     18 OAY         16.5540     3.1530     7.2970 o          1 1T9      -0.710833
     19 OAZ         16.0340     1.6210     9.2350 o          1 1T9      -0.710833
     20 OBA         16.5780     0.6700     6.8440 o          1 1T9      -0.710833
     21 NAW         11.8330     3.3420     6.8030 ns         1 1T9       0.091000
     22 CAU         11.7050     4.5990     6.3340 c2         1 1T9       0.207000
     23 OAV         12.0080     4.8520     5.1880 o          1 1T9      -0.454000
     24 CAT         11.1840     5.6900     7.2330 c3         1 1T9      -0.131000
     25 CBC         11.1370     7.0090     6.4610 c3         1 1T9      -0.092000
     26 CBD         10.6080     8.1180     7.3740 c3         1 1T9      -0.113000
     27 CBE         10.5610     9.4370     6.6010 c3         1 1T9      -0.107000
     28 CBF         10.0320    10.5440     7.5150 c3         1 1T9      -0.110000
     29 CBG          9.9850    11.8630     6.7420 c3         1 1T9      -0.108000
     30 CBH          9.4570    12.9720     7.6560 c3         1 1T9      -0.112000
     31 H1          -0.3610     0.8850     0.5110 hc         1 1T9       0.052500
     32 H2          -0.3610    -0.8850     0.5110 hc         1 1T9       0.052500
     33 H4           1.8910     0.8850    -0.5110 hc         1 1T9       0.054000
     34 H5           1.8910    -0.8850    -0.5110 hc         1 1T9       0.054000
     35 H6           1.6790     0.8850     1.9540 hc         1 1T9       0.052000
     36 H7           1.6790    -0.8850     1.9540 hc         1 1T9       0.052000
     37 H8           3.9310    -0.8850     0.9320 hc         1 1T9       0.054500
     38 H9           3.9310     0.8850     0.9320 hc         1 1T9       0.054500
     39 H10          3.7180    -0.8840     3.3970 hc         1 1T9       0.050500
     40 H11          3.7190     0.8850     3.3960 hc         1 1T9       0.050500
     41 H12          5.9720     0.8830     2.3750 hc         1 1T9       0.055000
     42 H13          5.9710    -0.8860     2.3750 hc         1 1T9       0.055000
     43 H14          5.7570    -0.8860     4.8390 hc         1 1T9       0.046000
     44 H15          5.7590     0.8840     4.8390 hc         1 1T9       0.046000
     45 H16          8.0100    -0.8870     3.8180 hc         1 1T9       0.062500
     46 H17          8.0110     0.8820     3.8170 hc         1 1T9       0.062500
     47 H18          7.7980     0.8820     6.2810 ha         1 1T9       0.034500
     48 H19          7.7980    -0.8870     6.2820 ha         1 1T9       0.034500
     49 H20          9.0550    -0.3530     6.5930 DU         1 1T9      -0.014000
     50 H21         10.9330     0.2750     7.0330 DU         1 1T9       0.034000
     51 H22         12.1900     0.7500     7.4280 ha         1 1T9       0.067000
     52 H23         12.6070    -0.8350     6.0720 ho         1 1T9       0.193000
     53 H24         11.9920     2.4520     4.9160 h1         1 1T9       0.086000
     54 H25         14.2440     1.5580     5.2460 h1         1 1T9       0.033500
     55 H26         14.2290     3.2740     5.6770 h1         1 1T9       0.033500
     56 H29         11.6110     3.1400     7.7570 hn         1 1T9       0.075000
     57 H30         11.8390     5.7960     8.0900 hc         1 1T9       0.059500
     58 H31         10.1870     5.4340     7.5710 hc         1 1T9       0.059500
     59 H32         10.4820     6.9040     5.6050 hc         1 1T9       0.068500
     60 H33         12.1340     7.2650     6.1230 hc         1 1T9       0.068500
     61 H34          9.6110     7.8620     7.7120 hc         1 1T9       0.047500
     62 H35         11.2630     8.2230     8.2300 hc         1 1T9       0.047500
     63 H36         11.5580     9.6930     6.2640 hc         1 1T9       0.054500
     64 H37          9.9060     9.3310     5.7450 hc         1 1T9       0.054500
     65 H38         10.6880    10.6500     8.3710 hc         1 1T9       0.051000
     66 H39          9.0360    10.2880     7.8530 hc         1 1T9       0.051000
     67 H40         10.9820    12.1190     6.4030 hc         1 1T9       0.050500
     68 H41          9.3290    11.7570     5.8870 hc         1 1T9       0.050500
     69 H42         10.1130    13.0790     8.5110 hc         1 1T9       0.034000
     70 H43          8.4600    12.7160     7.9950 hc         1 1T9       0.034000
     71 H44          9.4230    13.9060     7.1080 hc         1 1T9       0.034000
     72 C1          -0.5100    -0.0000    -1.4430 c3         1 1T9      -0.108000
     73 C2          -2.0400     0.0010    -1.4430 c3         1 1T9      -0.109000
     74 C3          -2.5490     0.0010    -2.8850 c3         1 1T9      -0.108000
     75 C4          -4.0800     0.0020    -2.8850 c3         1 1T9      -0.112000
     76 H3          -0.1490    -0.8850    -1.9530 hc         1 1T9       0.053500
     77 H45         -0.1480     0.8840    -1.9540 hc         1 1T9       0.053500
     78 H46         -2.4010     0.8860    -0.9320 hc         1 1T9       0.053000
     79 H47         -2.4020    -0.8830    -0.9320 hc         1 1T9       0.053000
     80 H48         -2.1890    -0.8840    -3.3960 hc         1 1T9       0.051500
     81 H49         -2.1880     0.8860    -3.3960 hc         1 1T9       0.051500
     82 H50         -4.4410    -0.8820    -2.3740 hc         1 1T9       0.037333
     83 H51         -4.4410     0.0020    -3.9060 hc         1 1T9       0.037333
     84 H52         -4.4400     0.8870    -2.3750 hc         1 1T9       0.037333
@<TRIPOS>BOND
     1     1     2 1   
     2     1    31 1   
     3     1    32 1   
     4     1    72 1   
     5     2     3 1   
     6     2    33 1   
     7     2    34 1   
     8     3     4 1   
     9     3    35 1   
    10     3    36 1   
    11     4     5 1   
    12     4    37 1   
    13     4    38 1   
    14     5     6 1   
    15     5    39 1   
    16     5    40 1   
    17     6     7 1   
    18     6    41 1   
    19     6    42 1   
    20     7     8 1   
    21     7    43 1   
    22     7    44 1   
    23     8     9 1   
    24     8    45 1   
    25     8    46 1   
    26     9    10 1   
    27     9    47 1   
    28     9    48 1   
    29     9    49 1   
    30    10    11 1   
    31    10    49 1   
    32    11    12 1   
    33    11    50 1   
    34    12    13 1   
    35    12    14 1   
    36    12    50 1   
    37    12    51 1   
    38    13    52 1   
    39    14    15 1   
    40    14    21 1   
    41    14    53 1   
    42    15    16 1   
    43    15    54 1   
    44    15    55 1   
    45    16    17 1   
    46    17    18 1   
    47    17    19 1   
    48    17    20 1   
    49    21    22 1   
    50    21    56 1   
    51    22    23 1   
    52    22    24 1   
    53    24    25 1   
    54    24    57 1   
    55    24    58 1   
    56    25    26 1   
    57    25    59 1   
    58    25    60 1   
    59    26    27 1   
    60    26    61 1   
    61    26    62 1   
    62    27    28 1   
    63    27    63 1   
    64    27    64 1   
    65    28    29 1   
    66    28    65 1   
    67    28    66 1   
    68    29    30 1   
    69    29    67 1   
    70    29    68 1   
    71    30    69 1   
    72    30    70 1   
    73    30    71 1   
    74    72    73 1   
    75    72    76 1   
    76    72    77 1   
    77    73    74 1   
    78    73    78 1   
    79    73    79 1   
    80    74    75 1   
    81    74    80 1   
    82    74    81 1   
    83    75    82 1   
    84    75    83 1   
    85    75    84 1   
@<TRIPOS>SUBSTRUCTURE
     1 1T9         1 TEMP              0 ****  ****    0 ROOT
