@<TRIPOS>MOLECULE
1TA
   62    66     1     0     0
SMALL
bcc


@<TRIPOS>ATOM
      1 C02         -0.1050    -0.0470     0.3320 c          1 1TA       0.562500
      2 C03          1.3470    -0.2370     0.1820 ce         1 1TA      -0.234200
      3 C04          2.1570    -0.3730     1.2370 c2         1 1TA      -0.101200
      4 C05          1.7040    -0.3150     2.6670 c3         1 1TA      -0.005600
      5 C06          2.3060     0.9570     3.2720 c3         1 1TA      -0.072100
      6 C07          0.2020    -0.2140     2.7800 c2         1 1TA      -0.045400
      7 C08         -0.3440    -0.2570     4.1660 c3         1 1TA      -0.052200
      8 C09          0.1090    -1.5110     4.8850 c3         1 1TA      -0.074400
      9 C10          1.6220    -1.6340     4.8680 c3         1 1TA      -0.067700
     10 C11          2.1630    -1.6290     3.4040 c3         1 1TA       0.208300
     11 C13          3.7190    -1.8280     3.3970 c3         1 1TA       0.126100
     12 C15          4.1670    -3.0390     4.2240 c3         1 1TA      -0.102400
     13 C16          3.6060    -3.0140     5.6340 c3         1 1TA      -0.034000
     14 C17          4.2200    -1.8870     6.4490 c3         1 1TA      -0.112100
     15 C18          2.0660    -2.9250     5.5200 c3         1 1TA      -0.073700
     16 C19          1.5560    -3.2870     6.9080 c3         1 1TA      -0.086400
     17 C20          2.5140    -4.3960     7.3720 c3         1 1TA       0.136100
     18 C21          3.7750    -4.3280     6.4530 c3         1 1TA       0.035800
     19 C23          2.6680    -6.3860     6.1070 c3         1 1TA       0.347600
     20 C24          3.3460    -7.6050     6.7170 c3         1 1TA      -0.111600
     21 C25          1.7300    -6.7630     4.9700 c3         1 1TA      -0.111600
     22 C27          5.0890    -4.3980     7.2060 c          1 1TA       0.538100
     23 C28          6.2300    -5.0700     6.4830 c3         1 1TA       0.042400
     24 C31         -0.6050    -0.0760     1.7150 ce         1 1TA      -0.240200
     25 F12          1.6350    -2.7210     2.7090 f          1 1TA      -0.232300
     26 O01         -0.8560     0.1200    -0.6390 o          1 1TA      -0.531100
     27 O14          4.3360    -0.6250     3.8210 oh         1 1TA      -0.599800
     28 O22          3.6630    -5.4740     5.6050 os         1 1TA      -0.432600
     29 O26          1.9460    -5.6820     7.1240 os         1 1TA      -0.433600
     30 O29          7.4900    -4.7250     7.0120 oh         1 1TA      -0.588800
     31 O30          5.2200    -3.9580     8.3520 o          1 1TA      -0.525100
     32 H031         1.7250    -0.2630    -0.8530 ha         1 1TA       0.152000
     33 H041         3.2440    -0.5050     1.1060 ha         1 1TA       0.136000
     34 H062         1.6940     1.8410     2.9680 hc         1 1TA       0.051367
     35 H063         3.3510     1.1090     2.9070 hc         1 1TA       0.051367
     36 H061         2.3310     0.9020     4.3850 hc         1 1TA       0.051367
     37 H081        -1.4660    -0.2220     4.1500 hc         1 1TA       0.058200
     38 H082         0.0140     0.6530     4.7220 hc         1 1TA       0.058200
     39 H092        -0.2470    -1.4850     5.9480 hc         1 1TA       0.056200
     40 H091        -0.3440    -2.4120     4.3930 hc         1 1TA       0.056200
     41 H101         2.0690    -0.7550     5.4040 hc         1 1TA       0.077700
     42 H131         4.0260    -2.0200     2.3260 h1         1 1TA       0.049700
     43 H152         5.2870    -3.0640     4.2550 hc         1 1TA       0.067700
     44 H151         3.8150    -3.9710     3.7050 hc         1 1TA       0.067700
     45 H172         3.9460    -0.8880     6.0320 hc         1 1TA       0.053367
     46 H171         3.8730    -1.9380     7.5100 hc         1 1TA       0.053367
     47 H173         5.3350    -1.9740     6.4390 hc         1 1TA       0.053367
     48 H181         1.7400    -3.7690     4.8370 hc         1 1TA       0.074700
     49 H192         0.5040    -3.6610     6.8760 hc         1 1TA       0.066700
     50 H191         1.6090    -2.4170     7.6070 hc         1 1TA       0.066700
     51 H201         2.7530    -4.3400     8.4630 h1         1 1TA       0.098700
     52 H241         3.9020    -8.1570     5.9240 hc         1 1TA       0.055367
     53 H243         2.5720    -8.2710     7.1670 hc         1 1TA       0.055367
     54 H242         4.0620    -7.2910     7.5130 hc         1 1TA       0.055367
     55 H251         0.9440    -7.4520     5.3600 hc         1 1TA       0.055367
     56 H253         1.2410    -5.8520     4.5510 hc         1 1TA       0.055367
     57 H252         2.3100    -7.2700     4.1640 hc         1 1TA       0.055367
     58 H282         6.0680    -6.1830     6.5360 h1         1 1TA       0.079200
     59 H281         6.2570    -4.7520     5.4050 h1         1 1TA       0.079200
     60 H311        -1.6980     0.0150     1.8260 ha         1 1TA       0.151000
     61 H141         5.2320    -0.8470     4.1060 ho         1 1TA       0.411000
     62 H291         7.4220    -4.7560     7.9770 ho         1 1TA       0.418000
@<TRIPOS>BOND
     1     1     2 1   
     2     1    24 1   
     3     1    26 2   
     4     2     3 2   
     5     2    32 1   
     6     3     4 1   
     7     3    33 1   
     8     4     5 1   
     9     4     6 1   
    10     4    10 1   
    11     5    34 1   
    12     5    35 1   
    13     5    36 1   
    14     6     7 1   
    15     6    24 2   
    16     7     8 1   
    17     7    37 1   
    18     7    38 1   
    19     8     9 1   
    20     8    39 1   
    21     8    40 1   
    22     9    10 1   
    23     9    15 1   
    24     9    41 1   
    25    10    11 1   
    26    10    25 1   
    27    11    12 1   
    28    11    27 1   
    29    11    42 1   
    30    12    13 1   
    31    12    43 1   
    32    12    44 1   
    33    13    14 1   
    34    13    15 1   
    35    13    18 1   
    36    14    45 1   
    37    14    46 1   
    38    14    47 1   
    39    15    16 1   
    40    15    48 1   
    41    16    17 1   
    42    16    49 1   
    43    16    50 1   
    44    17    18 1   
    45    17    29 1   
    46    17    51 1   
    47    18    22 1   
    48    18    28 1   
    49    19    20 1   
    50    19    21 1   
    51    19    28 1   
    52    19    29 1   
    53    20    52 1   
    54    20    53 1   
    55    20    54 1   
    56    21    55 1   
    57    21    56 1   
    58    21    57 1   
    59    22    23 1   
    60    22    31 2   
    61    23    30 1   
    62    23    58 1   
    63    23    59 1   
    64    24    60 1   
    65    27    61 1   
    66    30    62 1   
@<TRIPOS>SUBSTRUCTURE
     1 1TA         1 TEMP              0 ****  ****    0 ROOT
