@<TRIPOS>MOLECULE
molecule
   62    66     1     0     0
SMALL
bcc


@<TRIPOS>ATOM
      1 C02          0.0000     0.0000     0.0000 c          1 1TA       0.563500
      2 C03          1.4730     0.0000     0.0000 ce         1 1TA      -0.223200
      3 C04          2.1330     0.0000     1.1470 c2         1 1TA      -0.108200
      4 C05          1.4780     0.0080     2.4860 c3         1 1TA      -0.018600
      5 C06          1.8520     1.3170     3.1830 c3         1 1TA      -0.070100
      6 C07         -0.0180    -0.0720     2.4290 c2         1 1TA      -0.049400
      7 C08         -0.7790    -0.1470     3.7410 c3         1 1TA      -0.048200
      8 C09         -0.2190    -1.3220     4.5500 c3         1 1TA      -0.075400
      9 C10          1.2930    -1.1590     4.7160 c3         1 1TA      -0.080700
     10 C11          1.9980    -1.1470     3.3490 c3         1 1TA       0.208300
     11 C13          3.5150    -1.0810     3.4970 c3         1 1TA       0.126100
     12 C15          4.0450    -2.2080     4.3970 c3         1 1TA      -0.079400
     13 C16          3.3490    -2.0780     5.7380 c3         1 1TA      -0.051000
     14 C17          3.5480    -0.6660     6.2910 c3         1 1TA      -0.097100
     15 C18          1.8440    -2.3020     5.5490 c3         1 1TA      -0.066700
     16 C19          1.3470    -2.3660     6.9980 c3         1 1TA      -0.070400
     17 C20          2.4560    -3.1870     7.7140 c3         1 1TA       0.131100
     18 C21          3.7220    -3.1070     6.7990 c3         1 1TA       0.019800
     19 C23          3.2740    -5.2870     7.3020 c3         1 1TA       0.328600
     20 C24          4.1910    -5.4570     8.5150 c3         1 1TA      -0.108600
     21 C25          2.9240    -6.6510     6.7040 c3         1 1TA      -0.108600
     22 C27          4.9320    -2.6180     7.5530 c          1 1TA       0.564100
     23 C28          6.3140    -3.0130     7.0990 c3         1 1TA       0.046400
     24 C31         -0.7010    -0.0400     1.2930 ce         1 1TA      -0.237200
     25 F12          1.6720    -2.3160     2.6520 f          1 1TA      -0.232300
     26 O01         -0.6220     0.0390    -1.0450 o          1 1TA      -0.524100
     27 O14          3.8730     0.1790     4.0690 oh         1 1TA      -0.600800
     28 O22          3.9020    -4.4480     6.3080 os         1 1TA      -0.413600
     29 O26          2.1220    -4.5850     7.5900 os         1 1TA      -0.412600
     30 O29          7.2790    -2.5320     8.0360 oh         1 1TA      -0.588800
     31 O30          4.7950    -1.9100     8.5220 o          1 1TA      -0.491100
     32 H031         2.0150     0.0500    -0.9370 ha         1 1TA       0.152000
     33 H041         3.2160    -0.0050     1.1100 ha         1 1TA       0.124000
     34 H062         1.1770     2.1020     2.8640 hc         1 1TA       0.048367
     35 H063         2.8680     1.5870     2.9230 hc         1 1TA       0.048367
     36 H061         1.7760     1.1890     4.2560 hc         1 1TA       0.048367
     37 H081        -0.6430     0.7740     4.2950 hc         1 1TA       0.057700
     38 H082        -1.8310    -0.3100     3.5440 hc         1 1TA       0.057700
     39 H092        -0.4250    -2.2480     4.0280 hc         1 1TA       0.057700
     40 H091        -0.6870    -1.3410     5.5270 hc         1 1TA       0.057700
     41 H101         1.4930    -0.2240     5.2240 hc         1 1TA       0.083700
     42 H131         3.9680    -1.1710     2.5170 h1         1 1TA       0.047700
     43 H152         5.1160    -2.1020     4.5270 hc         1 1TA       0.062700
     44 H151         3.8160    -3.1700     3.9550 hc         1 1TA       0.062700
     45 H172         3.2770    -0.6480     7.3400 hc         1 1TA       0.054033
     46 H171         4.5860    -0.3780     6.1810 hc         1 1TA       0.054033
     47 H173         2.9200     0.0280     5.7440 hc         1 1TA       0.054033
     48 H181         1.6670    -3.2480     5.0520 hc         1 1TA       0.083700
     49 H192         1.2770    -1.3710     7.4210 hc         1 1TA       0.065700
     50 H191         0.3960    -2.8820     7.0530 hc         1 1TA       0.065700
     51 H201         2.6420    -2.8750     8.7340 h1         1 1TA       0.093700
     52 H241         4.2260    -4.5290     9.0740 hc         1 1TA       0.054367
     53 H243         5.1890    -5.7140     8.1800 hc         1 1TA       0.054367
     54 H242         3.8080    -6.2470     9.1490 hc         1 1TA       0.054367
     55 H251         2.3020    -6.5120     5.8280 hc         1 1TA       0.054367
     56 H253         3.8340    -7.1660     6.4220 hc         1 1TA       0.054367
     57 H252         2.3880    -7.2400     7.4380 hc         1 1TA       0.054367
     58 H282         6.5100    -2.5820     6.1250 h1         1 1TA       0.049200
     59 H281         6.3780    -4.0920     7.0360 h1         1 1TA       0.049200
     60 H311        -1.7840    -0.0450     1.3160 ha         1 1TA       0.153000
     61 H141         4.6860     0.4750     3.6940 ho         1 1TA       0.401000
     62 H291         8.1470    -2.7250     7.7200 ho         1 1TA       0.405000
@<TRIPOS>BOND
     1    29    17 1
     2    29    19 1
     3    20    19 1
     4    21    19 1
     5    17    16 1
     6    17    18 1
     7    19    28 1
     8    16    15 1
     9    31    22 2
    10    28    18 1
    11     8     7 1
    12     8     9 1
    13    18    22 1
    14    18    13 1
    15    15     9 1
    16    15    13 1
    17    22    23 1
    18     7     6 1
    19     9    10 1
    20    13    14 1
    21    13    12 1
    22    23    30 1
    23    25    10 1
    24     6    24 2
    25     6     4 1
    26    10     4 1
    27    10    11 1
    28    12    11 1
    29    24     1 1
    30     4     5 1
    31     4     3 1
    32    11    27 1
    33     1    26 2
    34     1     2 1
    35     3     2 2
    36     2    32 1
    37     3    33 1
    38     5    34 1
    39     5    35 1
    40     5    36 1
    41     7    37 1
    42     7    38 1
    43     8    39 1
    44     8    40 1
    45     9    41 1
    46    11    42 1
    47    12    43 1
    48    12    44 1
    49    14    45 1
    50    14    46 1
    51    14    47 1
    52    15    48 1
    53    16    49 1
    54    16    50 1
    55    17    51 1
    56    20    52 1
    57    20    53 1
    58    20    54 1
    59    21    55 1
    60    21    56 1
    61    21    57 1
    62    23    58 1
    63    23    59 1
    64    24    60 1
    65    27    61 1
    66    30    62 1
@<TRIPOS>SUBSTRUCTURE
     1 1TA         1 TEMP              0 ****  ****    0 ROOT
