@<TRIPOS>MOLECULE
molecule
   45    46     1     0     0
SMALL
bcc


@<TRIPOS>ATOM
      1 C4           0.0000     0.0000     0.0000 ca         1 1TB      -0.131000
      2 C5           1.4230     0.0000     0.0000 ca         1 1TB       0.001000
      3 C6           2.1280     0.0000     1.2260 ca         1 1TB      -0.101000
      4 C1           1.4120    -0.0010     2.4630 ca         1 1TB       0.019400
      5 C2          -0.0600    -0.0000     2.4670 ca         1 1TB      -0.496500
      6 C3          -0.7290     0.0010     1.2140 ca         1 1TB       0.038000
      7 C11          2.2700    -0.0030     3.7550 c          1 1TB       0.635700
      8 O12          2.8780     1.2240     4.0840 os         1 1TB      -0.393900
      9 C13          4.1170     1.2320     4.7210 c3         1 1TB       0.121700
     10 O11          2.3830    -1.0290     4.4550 o          1 1TB      -0.576000
     11 S7          -1.0640    -0.0010     3.9890 sy         1 1TB       1.516200
     12 N8          -0.4450     0.6380     5.1570 ny         1 1TB      -0.546700
     13 C9          -0.0410     1.9830     5.2680 c          1 1TB       0.676100
     14 O7A         -2.3380     0.6950     3.7000 o          1 1TB      -0.540800
     15 O7B         -1.3100    -1.3890     4.3550 o          1 1TB      -0.540800
     16 O9          -0.1930     2.7650     4.3140 o          1 1TB      -0.543100
     17 N10          0.5440     2.4080     6.4570 n          1 1TB      -0.439300
     18 C2'          1.0240     3.6850     6.7540 ca         1 1TB       0.787900
     19 N1'          1.6200     3.9940     8.0340 nb         1 1TB      -0.756000
     20 C6'          2.1030     5.3010     8.3110 ca         1 1TB       0.731300
     21 N5'          1.9730     6.2590     7.2930 nb         1 1TB      -0.773000
     22 C4'          1.3920     6.0050     6.0220 ca         1 1TB       0.902300
     23 N3'          0.9110     4.6790     5.7620 nb         1 1TB      -0.736000
     24 C10          0.7170     1.4730     7.5520 c3         1 1TB       0.062300
     25 O4'          1.2760     7.0020     5.0460 os         1 1TB      -0.397100
     26 C5'          1.5540     8.3660     4.7840 c3         1 1TB       0.119700
     27 C7'          2.7390     5.6220     9.6620 c3         1 1TB      -0.148400
     28 H4          -0.5330     0.0000    -0.9430 ha         1 1TB       0.182000
     29 H5           1.9660    -0.0000    -0.9380 ha         1 1TB       0.178000
     30 H6           3.2120    -0.0000     1.2270 ha         1 1TB       0.187000
     31 H3          -1.8120    -0.0020     1.1860 ha         1 1TB       0.188000
     32 H131         4.4410     2.2550     4.8700 h1         1 1TB       0.073367
     33 H132         4.0340     0.7360     5.6800 h1         1 1TB       0.073367
     34 H133         4.8420     0.7100     4.1060 h1         1 1TB       0.073367
     35 HN8          0.3810     0.1020     5.3410 hn         1 1TB       0.446300
     36 H101         0.7510     0.4630     7.1620 h1         1 1TB       0.072367
     37 H102        -0.1140     1.5660     8.2410 h1         1 1TB       0.072367
     38 H103         1.6430     1.6910     8.0710 h1         1 1TB       0.072367
     39 H5'1         2.6190     8.5420     4.8790 h1         1 1TB       0.067700
     40 H5'2         1.2370     8.6120     3.7780 h1         1 1TB       0.067700
     41 H5'3         1.0200     8.9860     5.4930 h1         1 1TB       0.067700
     42 H7'1         3.2510     4.7440    10.0370 hc         1 1TB       0.079367
     43 H7'2         3.4500     6.4310     9.5440 hc         1 1TB       0.079367
     44 H7'3         1.9690     5.9180    10.3630 hc         1 1TB       0.079367
     45 H82         -1.0740     0.4610     5.9160 hn         1 1TB       0.446300
@<TRIPOS>BOND
     1     1     2 ar  
     2     1     6 ar  
     3     1    28 1   
     4     2     3 ar  
     5     2    29 1   
     6     3     4 ar  
     7     3    30 1   
     8     4     5 ar  
     9     4     7 1   
    10     5     6 ar  
    11     5    11 1   
    12     6    31 1   
    13     7     8 1   
    14     7    10 2   
    15     8     9 1   
    16     9    32 1   
    17     9    33 1   
    18     9    34 1   
    19    11    12 1   
    20    11    14 2   
    21    11    15 2   
    22    12    13 1   
    23    12    35 1   
    24    13    16 2   
    25    13    17 1   
    26    17    18 1   
    27    17    24 1   
    28    18    19 ar  
    29    18    23 ar  
    30    19    20 ar  
    31    20    21 ar  
    32    20    27 1   
    33    21    22 ar  
    34    22    23 ar  
    35    22    25 1   
    36    24    36 1   
    37    24    37 1   
    38    24    38 1   
    39    25    26 1   
    40    26    39 1   
    41    26    40 1   
    42    26    41 1   
    43    27    42 1   
    44    27    43 1   
    45    27    44 1   
    46    45    12 1   
@<TRIPOS>SUBSTRUCTURE
     1 1TB         1 TEMP              0 ****  ****    0 ROOT
