@<TRIPOS>MOLECULE
1TB
   44    45     1     0     0
SMALL
bcc


@<TRIPOS>ATOM
      1 C4           0.0000     0.0000     0.0000 ca         1 1TB      -0.096000
      2 C5           1.3840     0.0000     0.0000 ca         1 1TB      -0.068000
      3 C6           2.0770     0.0000     1.1920 ca         1 1TB      -0.080000
      4 C1           1.3790     0.0000     2.4010 ca         1 1TB      -0.063600
      5 C2          -0.0180    -0.0050     2.3950 ca         1 1TB      -0.088500
      6 C3          -0.6980     0.0010     1.1950 ca         1 1TB       0.017000
      7 C11          2.1150    -0.0000     3.6820 c          1 1TB       0.711700
      8 O12          3.4610     0.0350     3.6860 os         1 1TB      -0.421900
      9 C13          4.1880    -0.0760     4.9390 c3         1 1TB       0.281700
     10 O11          1.5050    -0.0330     4.7330 o          1 1TB      -0.579000
     11 S7          -0.9070    -0.0050     3.9160 sy         1 1TB       1.061900
     12 N8          -0.4720     1.3610     4.7440 ns         1 1TB      -0.312300
     13 C9          -0.7200     2.5770     4.2170 c          1 1TB       0.615100
     14 O7A         -2.2720     0.1760     3.5640 o          1 1TB      -0.559300
     15 O7B         -0.3880    -1.0940     4.6670 o          1 1TB      -0.559300
     16 O9          -1.3550     2.6730     3.1850 o          1 1TB      -0.594100
     17 N10         -0.2630     3.6840     4.8340 n          1 1TB      -0.065300
     18 C2'         -0.6180     4.9370     4.3600 ca         1 1TB       0.658900
     19 N1'         -0.0850     6.0290     4.9020 nb         1 1TB      -0.760000
     20 C6'         -0.4240     7.2240     4.4500 ca         1 1TB       0.699300
     21 N5'         -1.2910     7.3380     3.4580 nb         1 1TB      -0.783000
     22 C4'         -1.8260     6.2510     2.9130 ca         1 1TB       0.878300
     23 N3'         -1.4860     5.0490     3.3610 nb         1 1TB      -0.669000
     24 C10          0.6070     3.5640     6.0060 c3         1 1TB       0.054300
     25 O4'         -2.7140     6.3690     1.8990 os         1 1TB      -0.370100
     26 C5'         -2.8660     7.7670     1.6440 c3         1 1TB       0.229700
     27 C7'          0.1820     8.4590     5.0650 c3         1 1TB      -0.033400
     28 H4          -0.5390     0.0020    -0.9400 ha         1 1TB       0.110000
     29 H5           1.9240    -0.0000    -0.9390 ha         1 1TB       0.106000
     30 H6           3.1610     0.0020     1.1900 ha         1 1TB       0.120000
     31 H3          -1.7820    -0.0010     1.1880 ha         1 1TB       0.141000
     32 H131         5.2490    -0.1510     4.7350 h1         1 1TB       0.001033
     33 H132         3.9970     0.8000     5.5460 h1         1 1TB       0.001033
     34 H133         3.8590    -0.9620     5.4690 h1         1 1TB       0.001033
     35 HN8         -0.0740     1.2850     5.6590 hn         1 1TB       0.251500
     36 H101         0.2240     2.7930     6.6630 h1         1 1TB       0.024700
     37 H102         1.6090     3.3010     5.6860 h1         1 1TB       0.024700
     38 H103         0.6340     4.5090     6.5350 h1         1 1TB       0.024700
     39 H5'1        -3.5450     7.9110     0.8120 h1         1 1TB       0.007367
     40 H5'2        -3.2680     8.2530     2.5260 h1         1 1TB       0.007367
     41 H5'3        -1.9020     8.1970     1.4020 h1         1 1TB       0.007367
     42 H7'1         0.0320     8.4390     6.1370 hc         1 1TB       0.022367
     43 H7'2         1.2430     8.4870     4.8490 hc         1 1TB       0.022367
     44 H7'3        -0.2940     9.3390     4.6500 hc         1 1TB       0.022367
@<TRIPOS>BOND
     1     1     2 ar  
     2     1     6 ar  
     3     1    28 1   
     4     2     3 ar  
     5     2    29 1   
     6     3     4 ar  
     7     3    30 1   
     8     4     5 ar  
     9     4     7 1   
    10     5     6 ar  
    11     5    11 1   
    12     6    31 1   
    13     7     8 1   
    14     7    10 2   
    15     8     9 1   
    16     9    32 1   
    17     9    33 1   
    18     9    34 1   
    19    11    12 1   
    20    11    14 2   
    21    11    15 2   
    22    12    13 1   
    23    12    35 1   
    24    13    16 2   
    25    13    17 1   
    26    17    18 1   
    27    17    24 1   
    28    18    19 ar  
    29    18    23 ar  
    30    19    20 ar  
    31    20    21 ar  
    32    20    27 1   
    33    21    22 ar  
    34    22    23 ar  
    35    22    25 1   
    36    24    36 1   
    37    24    37 1   
    38    24    38 1   
    39    25    26 1   
    40    26    39 1   
    41    26    40 1   
    42    26    41 1   
    43    27    42 1   
    44    27    43 1   
    45    27    44 1   
@<TRIPOS>SUBSTRUCTURE
     1 1TB         1 TEMP              0 ****  ****    0 ROOT
