@<TRIPOS>MOLECULE
1TD
   30    32     1     0     0
SMALL
bcc


@<TRIPOS>ATOM
      1 C1           0.3440    -0.0110    -0.0880 ca         1 1TD      -0.166000
      2 C2           1.5930     0.5950    -0.0280 ca         1 1TD      -0.110000
      3 C3          -4.3450    -0.8430     1.9900 ca         1 1TD      -0.172000
      4 C4          -0.3510    -0.3560     1.0810 ca         1 1TD      -0.077000
      5 C5          -3.1520    -0.4460     2.5890 ca         1 1TD      -0.131000
      6 C6          -4.9260    -2.0660     2.3260 ca         1 1TD      -0.084000
      7 C7           2.2090     0.8740     1.1990 ca         1 1TD      -0.181000
      8 C8          -3.1370    -2.4920     3.8880 ca         1 1TD      -0.073000
      9 C9           0.2180    -0.0790     2.3090 ca         1 1TD      -0.072800
     10 C10         -2.5340    -1.2720     3.5410 ca         1 1TD      -0.141800
     11 C11         -4.3240    -2.8970     3.2740 ca         1 1TD      -0.133600
     12 C12          1.5260     0.5340     2.3630 ca         1 1TD       0.047600
     13 C13         -0.2110    -0.3280     3.6860 cc         1 1TD      -0.174400
     14 C14          0.9310     0.1420     4.5510 c          1 1TD       0.703700
     15 C15         -1.3220    -0.8630     4.2210 cf         1 1TD       0.057800
     16 C16         -4.9630    -4.2320     3.6430 c          1 1TD       0.909200
     17 N17          1.9180     0.6990     3.7020 ns         1 1TD      -0.484100
     18 O18         -4.3860    -4.9370     4.5170 o          1 1TD      -0.824800
     19 O19          1.0450     0.1050     5.7840 o          1 1TD      -0.625500
     20 O20         -6.0310    -4.5520     3.0510 o          1 1TD      -0.824800
     21 H1          -0.1130    -0.2290    -1.0640 ha         1 1TD       0.128000
     22 H2           2.1190     0.8590    -0.9580 ha         1 1TD       0.120000
     23 H4          -1.3350    -0.8500     1.0180 ha         1 1TD       0.163000
     24 H6          -5.8670    -2.4020     1.8600 ha         1 1TD       0.156000
     25 H7           3.2000     1.3430     1.2330 ha         1 1TD       0.127000
     26 H8          -2.6840    -3.1590     4.6410 ha         1 1TD       0.159000
     27 H9          -1.3350    -1.0210     5.3210 ha         1 1TD       0.146000
     28 H10          2.8250     0.9560     3.9850 hn         1 1TD       0.326500
     29 H3          -4.8280    -0.1860     1.2540 ha         1 1TD       0.111000
     30 H5          -2.6970     0.5220     2.3330 ha         1 1TD       0.117000
@<TRIPOS>BOND
     1     1     2 ar  
     2     1     4 ar  
     3     1    21 1   
     4     2     7 ar  
     5     2    22 1   
     6     3     5 ar  
     7     3     6 ar  
     8     3    29 1   
     9     4     9 ar  
    10     4    23 1   
    11     5    10 ar  
    12     5    30 1   
    13     6    11 ar  
    14     6    24 1   
    15     7    12 ar  
    16     7    25 1   
    17     8    10 ar  
    18     8    11 ar  
    19     8    26 1   
    20     9    12 ar  
    21     9    13 1   
    22    10    15 1   
    23    11    16 1   
    24    12    17 1   
    25    13    14 1   
    26    13    15 2   
    27    14    17 1   
    28    14    19 2   
    29    15    27 1   
    30    16    18 1   
    31    16    20 1   
    32    17    28 1   
@<TRIPOS>SUBSTRUCTURE
     1 1TD         1 TEMP              0 ****  ****    0 ROOT
