@<TRIPOS>MOLECULE
molecule
   30    32     1     0     0
SMALL
bcc


@<TRIPOS>ATOM
      1 C1           0.0000     0.0000     0.0000 ca         1 1TD      -0.159000
      2 C2           1.3850     0.0000     0.0000 ca         1 1TD      -0.111000
      3 C3          -3.8330    -1.4540     1.5880 ca         1 1TD      -0.179000
      4 C4          -0.6920    -0.0000     1.1950 ca         1 1TD      -0.078000
      5 C5          -2.7640    -1.2420     2.4350 ca         1 1TD      -0.125000
      6 C6          -4.9610    -0.6630     1.6760 ca         1 1TD      -0.072000
      7 C7           2.0880     0.0000     1.1880 ca         1 1TD      -0.169000
      8 C8          -3.9630     0.5760     3.4930 ca         1 1TD      -0.070000
      9 C9           0.0080    -0.0060     2.3970 ca         1 1TD      -0.084800
     10 C10         -2.8220    -0.2250     3.3960 ca         1 1TD      -0.145800
     11 C11         -5.0330     0.3570     2.6290 ca         1 1TD      -0.111600
     12 C12          1.4090    -0.0000     2.4010 ca         1 1TD       0.038600
     13 C13         -0.4140    -0.0080     3.8160 cc         1 1TD      -0.204400
     14 C14          0.8410    -0.0140     4.5870 c          1 1TD       0.716700
     15 C15         -1.6880    -0.0040     4.3030 cf         1 1TD       0.066800
     16 C16         -6.2440     1.1990     2.7240 c          1 1TD       0.882200
     17 N17          1.8640    -0.0010     3.7150 ns         1 1TD      -0.459100
     18 O18         -6.3070     2.0810     3.5550 o          1 1TD      -0.831800
     19 O19          0.9370    -0.0180     5.8020 o          1 1TD      -0.639500
     20 O20         -7.2780     0.9860     1.8860 o          1 1TD      -0.831800
     21 H1          -0.5410     0.0000    -0.9380 ha         1 1TD       0.131000
     22 H2           1.9220     0.0000    -0.9410 ha         1 1TD       0.121000
     23 H4          -1.7750    -0.0000     1.1970 ha         1 1TD       0.174000
     24 H6          -5.7940    -0.8340     1.0050 ha         1 1TD       0.158000
     25 H7           3.1710     0.0000     1.1760 ha         1 1TD       0.118000
     26 H8          -4.0140     1.3640     4.2340 ha         1 1TD       0.154000
     27 H9          -1.8620     0.1410     5.3630 ha         1 1TD       0.149000
     28 H10          2.8300    -0.0010     3.9780 hn         1 1TD       0.328500
     29 H3          -3.7840    -2.2420     0.8460 ha         1 1TD       0.113000
     30 H5          -1.8820    -1.8650     2.3590 ha         1 1TD       0.121000
@<TRIPOS>BOND
     1    18    16 1
     2    20    16 1
     3    16    11 1
     4     7    12 ar
     5     7     2 ar
     6    17    12 1
     7    17    14 1
     8    12     9 ar
     9     2     1 ar
    10     8    11 ar
    11     8    10 ar
    12    11     6 ar
    13    14    19 2
    14    14    13 1
    15     9    13 1
    16     9     4 ar
    17     1     4 ar
    18    13    15 2
    19    15    10 1
    20    10     5 ar
    21     6     3 ar
    22     5     3 ar
    23     1    21 1
    24     2    22 1
    25     3    29 1
    26     4    23 1
    27     5    30 1
    28     6    24 1
    29     7    25 1
    30     8    26 1
    31    15    27 1
    32    17    28 1
@<TRIPOS>SUBSTRUCTURE
     1 1TD         1 TEMP              0 ****  ****    0 ROOT
