@<TRIPOS>MOLECULE
1TE
   45    48     1     0     0
SMALL
bcc


@<TRIPOS>ATOM
      1 OAU          4.9230     4.7550    -2.6270 o          1 1TE      -0.812800
      2 CAL          3.7190     4.4620    -2.4590 c          1 1TE       0.931600
      3 OAV          2.7420     5.2620    -2.5440 o          1 1TE      -0.812800
      4 CAG          3.2810     2.9740    -2.1770 c3         1 1TE      -0.083300
      5 NAA          4.3030     2.1160    -1.5980 nj         1 1TE      -0.325800
      6 CAE          3.9690     1.1150    -0.6270 c          1 1TE       0.656500
      7 OAT          3.5160     1.1470     0.5120 o          1 1TE      -0.577500
      8 CAD          4.4890    -0.0300    -1.5280 cy         1 1TE      -0.234700
      9 CAJ          5.7130    -0.7630    -1.0210 c3         1 1TE       0.162100
     10 CAK          5.9920    -2.0050    -1.8540 c3         1 1TE      -0.092100
     11 OAW          6.9010     0.0180    -1.0590 oh         1 1TE      -0.611800
     12 CAF          4.7180     1.0770    -2.6020 cy         1 1TE       0.031700
     13 CAI          3.7890     1.1670    -3.8210 c3         1 1TE      -0.053700
     14 CAS          3.0680    -0.1160    -4.1450 c3         1 1TE      -0.095100
     15 CAH          2.8570     2.3540    -3.5340 c3         1 1TE       0.017400
     16 SAX          1.1420     1.8370    -3.5680 ss         1 1TE      -0.331200
     17 CAM          0.3010     3.3540    -3.3240 cy         1 1TE      -0.064600
     18 CAN         -1.0090     3.2090    -2.5060 cy         1 1TE       0.175300
     19 CAO         -0.5770     3.8270    -4.5120 cy         1 1TE       0.175300
     20 NAB         -1.7870     3.7310    -3.6570 nn         1 1TE      -0.694300
     21 CAP         -2.9100     3.0640    -4.1260 cc         1 1TE       0.655300
     22 NAC         -3.7330     2.2650    -3.4130 nd         1 1TE      -0.704000
     23 CAR         -4.8270     1.9220    -4.1840 cd         1 1TE       0.361200
     24 CAQ         -4.8510     2.4270    -5.4710 cc         1 1TE      -0.287400
     25 SAY         -3.4950     3.3710    -5.7620 ss         1 1TE      -0.180300
     26 H2           2.4020     3.0330    -1.4750 h1         1 1TE       0.072700
     27 H3           3.6830    -0.7580    -1.7780 hc         1 1TE       0.089700
     28 H4           5.5230    -1.0610     0.0530 h1         1 1TE       0.039700
     29 H5           6.9630    -2.4580    -1.5430 hc         1 1TE       0.039367
     30 H6           5.1740    -2.7470    -1.7070 hc         1 1TE       0.039367
     31 H7           6.0550    -1.7370    -2.9360 hc         1 1TE       0.039367
     32 H8           6.6730     0.9070    -0.7570 ho         1 1TE       0.424000
     33 H9           5.7900     1.1970    -2.8960 h1         1 1TE       0.098700
     34 H10          4.4280     1.4400    -4.7080 hc         1 1TE       0.062700
     35 H11          2.2940    -0.3590    -3.3730 hc         1 1TE       0.040700
     36 H12          3.7950    -0.9630    -4.1960 hc         1 1TE       0.040700
     37 H13          2.5540    -0.0260    -5.1330 hc         1 1TE       0.040700
     38 H14          2.9770     3.1330    -4.3290 h1         1 1TE       0.096700
     39 H15          0.9980     4.1520    -2.9430 h1         1 1TE       0.177700
     40 H16         -1.2490     2.1650    -2.1920 h1         1 1TE       0.074450
     41 H17         -1.0900     3.9030    -1.6350 h1         1 1TE       0.074450
     42 H18         -0.3990     4.8860    -4.8220 h1         1 1TE       0.074450
     43 H19         -0.5650     3.1520    -5.4020 h1         1 1TE       0.074450
     44 H20         -5.5880     1.2760    -3.7320 h4         1 1TE       0.030100
     45 H21         -5.6260     2.2510    -6.2090 h4         1 1TE       0.168000
@<TRIPOS>BOND
     1     1     2 1   
     2     2     3 1   
     3     2     4 1   
     4     4     5 1   
     5     4    15 1   
     6     4    26 1   
     7     5     6 1   
     8     5    12 1   
     9     6     7 2   
    10     6     8 1   
    11     8     9 1   
    12     8    12 1   
    13     8    27 1   
    14     9    10 1   
    15     9    11 1   
    16     9    28 1   
    17    10    29 1   
    18    10    30 1   
    19    10    31 1   
    20    11    32 1   
    21    12    13 1   
    22    12    33 1   
    23    13    14 1   
    24    13    15 1   
    25    13    34 1   
    26    14    35 1   
    27    14    36 1   
    28    14    37 1   
    29    15    16 1   
    30    15    38 1   
    31    16    17 1   
    32    17    18 1   
    33    17    19 1   
    34    17    39 1   
    35    18    20 1   
    36    18    40 1   
    37    18    41 1   
    38    19    20 1   
    39    19    42 1   
    40    19    43 1   
    41    20    21 1   
    42    21    22 2   
    43    21    25 1   
    44    22    23 1   
    45    23    24 2   
    46    23    44 1   
    47    24    25 1   
    48    24    45 1   
@<TRIPOS>SUBSTRUCTURE
     1 1TE         1 TEMP              0 ****  ****    0 ROOT
