@<TRIPOS>MOLECULE
1TE
   45    48     1     0     0
SMALL
bcc


@<TRIPOS>ATOM
      1 OAU         2.8120   -0.0610    2.0490 o         1 1TE     -0.813300
      2 CAL         3.3100    0.6800    1.1690 c         1 1TE      0.941600
      3 OAV         4.0790    1.6590    1.3620 o         1 1TE     -0.813300
      4 CAG         2.8730    0.3800   -0.3250 c3        1 1TE     -0.077300
      5 NAA         3.7350   -0.6170   -0.9460 n         1 1TE     -0.326800
      6 CAE         3.2290   -1.5100   -1.9500 c         1 1TE      0.665500
      7 OAT         2.4000   -2.4130   -1.9520 o         1 1TE     -0.581500
      8 CAD         4.1980   -0.9610   -3.0260 cy        1 1TE     -0.195700
      9 CAJ         5.2670   -1.9310   -3.4820 c3        1 1TE      0.155100
     10 CAK         4.6610   -3.1360   -4.1800 c3        1 1TE     -0.136100
     11 OAW         6.1210   -1.2140   -4.3750 oh        1 1TE     -0.605800
     12 CAF         4.6410    0.0610   -1.9350 cy        1 1TE      0.039700
     13 CAI         4.2190    1.5330   -2.0580 c3        1 1TE     -0.061700
     14 CAS         4.0640    1.9960   -3.4810 c3        1 1TE     -0.094100
     15 CAH         2.9740    1.6790   -1.1660 c3        1 1TE     -0.001600
     16 SAX         1.4080    1.8870   -1.9970 ss        1 1TE     -0.286200
     17 CAM         1.2070    3.6190   -2.0570 cy        1 1TE     -0.049600
     18 CAN        -0.2780    4.0530   -2.1980 cy        1 1TE      0.169300
     19 CAO         1.4620    4.3210   -3.4200 cy        1 1TE      0.169300
     20 NAB         0.0240    4.6760   -3.5110 nh        1 1TE     -0.689300
     21 CAP        -0.3340    5.9950   -3.7730 cc        1 1TE      0.639300
     22 NAC        -1.3120    6.7030   -3.1700 nd        1 1TE     -0.698000
     23 CAR        -1.4710    7.9150   -3.8160 cd        1 1TE      0.360200
     24 CAQ        -0.6250    8.1500   -4.8850 cc        1 1TE     -0.282400
     25 SAY         0.3950    6.8440   -5.1320 ss        1 1TE     -0.165300
     26 H2          1.8130    0.0030   -0.2820 h1        1 1TE      0.083700
     27 H3          3.6730   -0.5100   -3.8980 hc        1 1TE      0.094700
     28 H4          5.8750   -2.2700   -2.5940 h1        1 1TE      0.045700
     29 H5          5.4490   -3.8970   -4.3930 hc        1 1TE      0.046033
     30 H6          4.1930   -2.8290   -5.1450 hc        1 1TE      0.046033
     31 H7          3.8760   -3.5940   -3.5290 hc        1 1TE      0.046033
     32 H8          6.7850   -1.8430   -4.6760 ho        1 1TE      0.390000
     33 H9          5.7140   -0.0330   -1.6480 h1        1 1TE      0.085700
     34 H10         5.0340    2.1450   -1.5730 hc        1 1TE      0.073700
     35 H11         4.9360    1.6560   -4.0910 hc        1 1TE      0.036033
     36 H12         4.0140    3.1130   -3.5190 hc        1 1TE      0.036033
     37 H13         3.1250    1.5960   -3.9390 hc        1 1TE      0.036033
     38 H14         3.1280    2.5390   -0.4620 h1        1 1TE      0.118700
     39 H15         1.7350    4.1170   -1.2130 h1        1 1TE      0.093700
     40 H16        -1.0000    3.2100   -2.3270 h1        1 1TE      0.075450
     41 H17        -0.6330    4.7440   -1.3970 h1        1 1TE      0.075450
     42 H18         2.1700    5.1830   -3.3740 h1        1 1TE      0.075450
     43 H19         1.7490    3.6280   -4.2490 h1        1 1TE      0.075450
     44 H20        -2.2390    8.6000   -3.4380 h4        1 1TE      0.034100
     45 H21        -0.6050    9.0500   -5.4920 h4        1 1TE      0.171000
@<TRIPOS>BOND
     1    1    2 1
     2    2    3 1
     3    2    4 1
     4    4    5 1
     5    4   15 1
     6    4   26 1
     7    5    6 1
     8    5   12 1
     9    6    7 2
    10    6    8 1
    11    8    9 1
    12    8   12 1
    13    8   27 1
    14    9   10 1
    15    9   11 1
    16    9   28 1
    17   10   29 1
    18   10   30 1
    19   10   31 1
    20   11   32 1
    21   12   13 1
    22   12   33 1
    23   13   14 1
    24   13   15 1
    25   13   34 1
    26   14   35 1
    27   14   36 1
    28   14   37 1
    29   15   16 1
    30   15   38 1
    31   16   17 1
    32   17   18 1
    33   17   19 1
    34   17   39 1
    35   18   20 1
    36   18   40 1
    37   18   41 1
    38   19   20 1
    39   19   42 1
    40   19   43 1
    41   20   21 1
    42   21   22 2
    43   21   25 1
    44   22   23 1
    45   23   24 2
    46   23   44 1
    47   24   25 1
    48   24   45 1
@<TRIPOS>SUBSTRUCTURE
     1 1TE         1 TEMP              0 ****  ****    0 ROOT
