@<TRIPOS>MOLECULE
1TJ
   36    39     1     0     0
SMALL
bcc


@<TRIPOS>ATOM
      1 OAD        -0.0110    0.7560    0.0290 o         1 1TJ     -0.484100
      2 CAV         1.1680    0.3940    0.0270 c         1 1TJ      0.581900
      3 CAT         1.9590    0.1820    1.2740 cc        1 1TJ      0.005600
      4 CAS         1.3040   -0.2790    2.4850 ca        1 1TJ     -0.112800
      5 CAO         0.0480   -0.9220    2.4890 ca        1 1TJ      0.180100
      6 OAE        -0.4990   -1.2530    1.2730 oh        1 1TJ     -0.492100
      7 CAJ        -0.5890   -1.2670    3.6900 ca        1 1TJ     -0.220000
      8 CAN         0.0400   -1.0120    4.9080 ca        1 1TJ     -0.007300
      9 CAA        -0.6280   -1.3510    6.1860 c3        1 1TJ     -0.062800
     10 CAK         1.3170   -0.4350    4.9170 ca        1 1TJ     -0.171000
     11 CAQ         1.9500   -0.0840    3.7260 ca        1 1TJ     -0.007300
     12 CAL         3.3120    0.5080    3.7750 c3        1 1TJ     -0.149100
     13 CAM         4.0880    0.3360    2.4960 c         1 1TJ      0.585300
     14 OAB         5.2990    0.1110    2.5000 o         1 1TJ     -0.493100
     15 CAR         3.2850    0.4710    1.2620 cd        1 1TJ     -0.241400
     16 CAU         3.9630    0.9220    0.0210 c         1 1TJ      0.594900
     17 OAC         4.9550    1.6530    0.0360 o         1 1TJ     -0.467100
     18 CAX         3.3200    0.4430   -1.2220 ca        1 1TJ     -0.164600
     19 CAW         1.9360    0.1900   -1.2250 ca        1 1TJ     -0.099600
     20 CAI         1.2870   -0.2300   -2.3840 ca        1 1TJ     -0.121000
     21 CAG         2.0190   -0.4260   -3.5590 ca        1 1TJ     -0.078000
     22 CAH         3.3880   -0.1960   -3.5800 ca        1 1TJ     -0.204000
     23 CAP         4.0420    0.2430   -2.4120 ca        1 1TJ      0.174100
     24 OAF         5.3910    0.4750   -2.3790 oh        1 1TJ     -0.463100
     25 H1         -1.4550   -1.3580    1.3890 ho        1 1TJ      0.431000
     26 H2         -1.5800   -1.7430    3.6640 ha        1 1TJ      0.141000
     27 H3          0.1050   -1.7780    6.9140 hc        1 1TJ      0.052033
     28 H4         -1.0710   -0.4270    6.6370 hc        1 1TJ      0.052033
     29 H5         -1.4480   -2.0940    6.0300 hc        1 1TJ      0.052033
     30 H6          1.8270   -0.2620    5.8770 ha        1 1TJ      0.142000
     31 H7          3.2280    1.6140    3.9750 hc        1 1TJ      0.093200
     32 H8          3.8990    0.0590    4.6230 hc        1 1TJ      0.093200
     33 H9          0.1990   -0.4010   -2.3660 ha        1 1TJ      0.157000
     34 H10         1.5050   -0.7630   -4.4720 ha        1 1TJ      0.142000
     35 H11         3.9660   -0.3500   -4.5030 ha        1 1TJ      0.142000
     36 H12         5.7460    0.3210   -3.2680 ho        1 1TJ      0.423000
@<TRIPOS>BOND
     1    1    2 2   
     2    2    3 1   
     3    2   19 1   
     4    3    4 1   
     5    3   15 2   
     6    4    5 ar  
     7    4   11 ar  
     8    5    6 1   
     9    5    7 ar  
    10    6   25 1   
    11    7    8 ar  
    12    7   26 1   
    13    8    9 1   
    14    8   10 ar  
    15    9   27 1   
    16    9   28 1   
    17    9   29 1   
    18   10   11 ar  
    19   10   30 1   
    20   11   12 1   
    21   12   13 1   
    22   12   31 1   
    23   12   32 1   
    24   13   14 2   
    25   13   15 1   
    26   15   16 1   
    27   16   17 2   
    28   16   18 1   
    29   18   19 ar  
    30   18   23 ar  
    31   19   20 ar  
    32   20   21 ar  
    33   20   33 1   
    34   21   22 ar  
    35   21   34 1   
    36   22   23 ar  
    37   22   35 1   
    38   23   24 1   
    39   24   36 1   
@<TRIPOS>SUBSTRUCTURE
     1 1TJ         1 TEMP              0 ****  ****    0 ROOT
