@<TRIPOS>MOLECULE
molecule
   36    39     1     0     0
SMALL
bcc


@<TRIPOS>ATOM
      1 OAD          0.0000     0.0000     0.0000 o          1 1TJ      -0.435100
      2 CAV          1.2140     0.0000     0.0000 c          1 1TJ       0.553900
      3 CAT          1.9670     0.0000     1.2800 cc         1 1TJ      -0.004400
      4 CAS          1.2960    -0.2930     2.5480 ca         1 1TJ      -0.118800
      5 CAO         -0.0180    -0.8050     2.5450 ca         1 1TJ       0.171100
      6 OAE         -0.6720    -0.9980     1.3740 oh         1 1TJ      -0.446100
      7 CAJ         -0.6360    -1.1080     3.7480 ca         1 1TJ      -0.218000
      8 CAN          0.0300    -0.8940     4.9390 ca         1 1TJ      -0.018300
      9 CAA         -0.6390    -1.2420     6.2430 c3         1 1TJ      -0.054800
     10 CAK          1.3120    -0.3630     4.9430 ca         1 1TJ      -0.166000
     11 CAQ          1.9390    -0.0480     3.7690 ca         1 1TJ      -0.013300
     12 CAL          3.3040     0.5910     3.8070 c3         1 1TJ      -0.132100
     13 CAM          4.0600     0.2380     2.5470 c          1 1TJ       0.581300
     14 OAB          5.2360    -0.0620     2.5880 o          1 1TJ      -0.485100
     15 CAR          3.3340     0.2660     1.2740 cd         1 1TJ      -0.245400
     16 CAU          4.0250     0.5640     0.0110 c          1 1TJ       0.585900
     17 OAC          5.1430     1.0420     0.0190 o          1 1TJ      -0.467100
     18 CAX          3.3450     0.2760    -1.2680 ca         1 1TJ      -0.157600
     19 CAW          1.9630    -0.0080    -1.2740 ca         1 1TJ      -0.108600
     20 CAI          1.3190    -0.2850    -2.4750 ca         1 1TJ      -0.108000
     21 CAG          2.0370    -0.2870    -3.6610 ca         1 1TJ      -0.089000
     22 CAH          3.3900    -0.0160    -3.6640 ca         1 1TJ      -0.187000
     23 CAP          4.0560     0.2760    -2.4690 ca         1 1TJ       0.171100
     24 OAF          5.3850     0.5420    -2.4750 oh         1 1TJ      -0.474100
     25 H1          -1.2040    -1.7740     1.4360 ho         1 1TJ       0.397000
     26 H2          -1.6330    -1.5310     3.7540 ha         1 1TJ       0.141000
     27 H3          -0.5620    -0.4020     6.9240 hc         1 1TJ       0.049700
     28 H4          -1.6840    -1.4660     6.0640 hc         1 1TJ       0.049700
     29 H5          -0.1530    -2.1060     6.6800 hc         1 1TJ       0.049700
     30 H6           1.8220    -0.2010     5.8840 ha         1 1TJ       0.139000
     31 H7           3.8490     0.2250     4.6690 hc         1 1TJ       0.088700
     32 H8           3.1960     1.6670     3.8720 hc         1 1TJ       0.088700
     33 H9           0.2570    -0.4990    -2.4830 ha         1 1TJ       0.155000
     34 H10          1.5330    -0.5110    -4.5940 ha         1 1TJ       0.140000
     35 H11          3.9380    -0.0210    -4.5980 ha         1 1TJ       0.142000
     36 H12          5.5870     1.1160    -3.1950 ho         1 1TJ       0.426000
@<TRIPOS>BOND
     1     9     8 1
     2     8     7 ar
     3     8    10 ar
     4     7     5 ar
     5    10    11 ar
     6     5     6 1
     7     5     4 ar
     8     1     2 2
     9    11     4 ar
    10    11    12 1
    11     4     3 1
    12    12    13 1
    13     2     3 1
    14     2    19 1
    15     3    15 2
    16    20    19 ar
    17    20    21 ar
    18    19    18 ar
    19    13    15 1
    20    13    14 2
    21    15    16 1
    22    21    22 ar
    23    18    16 1
    24    18    23 ar
    25    16    17 2
    26    22    23 ar
    27    23    24 1
    28     6    25 1
    29     7    26 1
    30     9    27 1
    31     9    28 1
    32     9    29 1
    33    10    30 1
    34    12    31 1
    35    12    32 1
    36    20    33 1
    37    21    34 1
    38    22    35 1
    39    24    36 1
@<TRIPOS>SUBSTRUCTURE
     1 1TJ         1 TEMP              0 ****  ****    0 ROOT
