@<TRIPOS>MOLECULE
1TJ
   36    39     1     0     0
SMALL
bcc


@<TRIPOS>ATOM
      1 OAD          0.1070    -1.0600     0.0410 o          1 1TJ      -0.484100
      2 CAV          1.2350    -0.5610     0.0110 c          1 1TJ       0.581900
      3 CAT          2.0750    -0.3690     1.2280 cc         1 1TJ       0.005600
      4 CAS          1.4510    -0.1010     2.5120 ca         1 1TJ      -0.112800
      5 CAO          0.1330     0.3860     2.6440 ca         1 1TJ       0.180100
      6 OAE         -0.5240     0.7580     1.4980 oh         1 1TJ      -0.492100
      7 CAJ         -0.4600     0.5440     3.9050 ca         1 1TJ      -0.221000
      8 CAN          0.2710     0.2560     5.0580 ca         1 1TJ      -0.007300
      9 CAA         -0.3490     0.3970     6.3960 c3         1 1TJ      -0.062800
     10 CAK          1.6020    -0.1640     4.9440 ca         1 1TJ      -0.171000
     11 CAQ          2.1930    -0.3280     3.6920 ca         1 1TJ      -0.007300
     12 CAL          3.6140    -0.7570     3.6110 c3         1 1TJ      -0.149100
     13 CAM          4.2820    -0.3790     2.3160 c          1 1TJ       0.585300
     14 OAB          5.4580    -0.0140     2.2770 o          1 1TJ      -0.493100
     15 CAR          3.4220    -0.4970     1.1190 cd         1 1TJ      -0.241400
     16 CAU          4.0660    -0.7510    -0.1940 c          1 1TJ       0.594900
     17 OAC          5.1330    -1.3580    -0.3030 o          1 1TJ      -0.467100
     18 CAX          3.2950    -0.2420    -1.3490 ca         1 1TJ      -0.164600
     19 CAW          1.8940    -0.1560    -1.2550 ca         1 1TJ      -0.099600
     20 CAI          1.1280     0.2860    -2.3310 ca         1 1TJ      -0.121000
     21 CAG          1.7570     0.6730    -3.5190 ca         1 1TJ      -0.078000
     22 CAH          3.1390     0.6100    -3.6350 ca         1 1TJ      -0.204000
     23 CAP          3.9110     0.1480    -2.5510 ca         1 1TJ       0.174100
     24 OAF          5.2780     0.0770    -2.6120 oh         1 1TJ      -0.463100
     25 H1          -1.4760     0.7380     1.6730 ho         1 1TJ       0.431000
     26 H2          -1.4980     0.9000     3.9790 ha         1 1TJ       0.141000
     27 H3          -1.2430     1.0680     6.3600 hc         1 1TJ       0.052033
     28 H4          -0.6770    -0.6070     6.7680 hc         1 1TJ       0.052033
     29 H5           0.3820     0.8200     7.1290 hc         1 1TJ       0.052033
     30 H6           2.1890    -0.3600     5.8540 ha         1 1TJ       0.142000
     31 H7           3.6680    -1.8790     3.7080 hc         1 1TJ       0.093200
     32 H8           4.1990    -0.3200     4.4670 hc         1 1TJ       0.093200
     33 H9           0.0320     0.3250    -2.2390 ha         1 1TJ       0.157000
     34 H10          1.1510     1.0270    -4.3670 ha         1 1TJ       0.142000
     35 H11          3.6360     0.9140    -4.5680 ha         1 1TJ       0.142000
     36 H12          5.5560     0.3510    -3.5000 ho         1 1TJ       0.423000
@<TRIPOS>BOND
     1     1     2 2   
     2     2     3 1   
     3     2    19 1   
     4     3     4 1   
     5     3    15 2   
     6     4     5 ar  
     7     4    11 ar  
     8     5     6 1   
     9     5     7 ar  
    10     6    25 1   
    11     7     8 ar  
    12     7    26 1   
    13     8     9 1   
    14     8    10 ar  
    15     9    27 1   
    16     9    28 1   
    17     9    29 1   
    18    10    11 ar  
    19    10    30 1   
    20    11    12 1   
    21    12    13 1   
    22    12    31 1   
    23    12    32 1   
    24    13    14 2   
    25    13    15 1   
    26    15    16 1   
    27    16    17 2   
    28    16    18 1   
    29    18    19 ar  
    30    18    23 ar  
    31    19    20 ar  
    32    20    21 ar  
    33    20    33 1   
    34    21    22 ar  
    35    21    34 1   
    36    22    23 ar  
    37    22    35 1   
    38    23    24 1   
    39    24    36 1   
@<TRIPOS>SUBSTRUCTURE
     1 1TJ         1 TEMP              0 ****  ****    0 ROOT
