@<TRIPOS>MOLECULE
molecule
   33    35     1     0     0
SMALL
bcc


@<TRIPOS>ATOM
      1 CAO          0.0000     0.0000     0.0000 ca         1 1TM      -0.108000
      2 CAP          1.3800     0.0000     0.0000 ca         1 1TM      -0.156000
      3 CAQ          2.0760     0.0000     1.2000 ca         1 1TM       0.100100
      4 OAT          3.4340     0.0000     1.1970 oh         1 1TM      -0.523100
      5 CAR          1.3870     0.0020     2.4060 ca         1 1TM      -0.156000
      6 CAS          0.0080     0.0020     2.4140 ca         1 1TM      -0.108000
      7 CAN         -0.6950     0.0010     1.2100 ca         1 1TM      -0.009000
      8 CAJ         -2.1770     0.0070     1.2140 cc         1 1TM      -0.289300
      9 CAK         -3.0110     1.0380     0.7330 cc         1 1TM       0.629200
     10 NAM         -2.5810     2.2420     0.1650 nv         1 1TM      -1.017500
     11 NAL         -4.2590     0.6770     0.9080 nd         1 1TM      -0.575800
     12 NAA         -4.2880    -0.5900     1.5040 na         1 1TM      -0.036600
     13 CAB         -3.0020    -1.0030     1.6870 cd         1 1TM       0.005700
     14 CAC         -2.5700    -2.2860     2.2800 ca         1 1TM      -0.044000
     15 CAD         -1.5480    -3.0250     1.6800 ca         1 1TM      -0.094000
     16 CAE         -1.1460    -4.2200     2.2370 ca         1 1TM      -0.155500
     17 CAF         -1.7570    -4.6900     3.3920 ca         1 1TM       0.114100
     18 OAI         -1.3590    -5.8680     3.9370 oh         1 1TM      -0.521100
     19 CAG         -2.7750    -3.9580     3.9910 ca         1 1TM      -0.155500
     20 CAH         -3.1780    -2.7590     3.4440 ca         1 1TM      -0.094000
     21 H1          -0.5430    -0.0000    -0.9380 ha         1 1TM       0.140500
     22 H2           1.9200    -0.0010    -0.9390 ha         1 1TM       0.140000
     23 H3           3.7490    -0.8880     1.2300 ho         1 1TM       0.418000
     24 H4           1.9330     0.0020     3.3410 ha         1 1TM       0.140000
     25 H5          -0.5290     0.0030     3.3550 ha         1 1TM       0.140500
     26 H6          -3.2030     2.7740    -0.4100 hn         1 1TM       0.441800
     27 H7          -1.6680     2.5950     0.3750 hn         1 1TM       0.441800
     28 H9          -1.0710    -2.6590     0.7790 ha         1 1TM       0.143000
     29 H10         -0.3530    -4.7940     1.7720 ha         1 1TM       0.144000
     30 H11         -1.8500    -6.5750     3.5510 ho         1 1TM       0.422000
     31 H12         -3.2480    -4.3270     4.8940 ha         1 1TM       0.144000
     32 H13         -3.9720    -2.1890     3.9120 ha         1 1TM       0.143000
     33 H8          -5.1110    -1.1040     1.7480 hn         1 1TM       0.332700
@<TRIPOS>BOND
     1     4     3 1   
     2     2     3 ar  
     3     2     1 ar  
     4     3     5 ar  
     5     1     7 ar  
     6     5     6 ar  
     7     7     6 ar  
     8     7     8 1   
     9     8    13 2   
    10     8     9 1   
    11    10     9 1   
    12    15    16 ar  
    13    15    14 ar  
    14    16    17 ar  
    15    14    13 1   
    16    14    20 ar  
    17    13    12 1   
    18     9    11 2   
    19    17    19 ar  
    20    17    18 1   
    21    20    19 ar  
    22    12    11 1   
    23     1    21 1   
    24     2    22 1   
    25     4    23 1   
    26     5    24 1   
    27     6    25 1   
    28    10    26 1   
    29    10    27 1   
    30    15    28 1   
    31    16    29 1   
    32    18    30 1   
    33    19    31 1   
    34    20    32 1   
    35    12    33 1   
@<TRIPOS>SUBSTRUCTURE
     1 1TM         1 TEMP              0 ****  ****    0 ROOT
