@<TRIPOS>MOLECULE
1TM
   33    35     1     0     0
SMALL
bcc


@<TRIPOS>ATOM
      1 CAO          0.0000     0.0000     0.0000 ca         1 1TM      -0.081500
      2 CAP          1.3800     0.0000     0.0000 ca         1 1TM      -0.139500
      3 CAQ          2.0760     0.0000     1.2000 ca         1 1TM       0.117100
      4 OAT          3.4340     0.0000     1.1970 oh         1 1TM      -0.501100
      5 CAR          1.3870     0.0020     2.4060 ca         1 1TM      -0.139500
      6 CAS          0.0080     0.0020     2.4140 ca         1 1TM      -0.081500
      7 CAN         -0.6950     0.0010     1.2100 ca         1 1TM       0.004000
      8 CAJ         -2.1770     0.0070     1.2140 cc         1 1TM      -0.299300
      9 CAK         -3.0110     1.0380     0.7330 cc         1 1TM       0.510200
     10 NAM         -2.5810     2.2420     0.1650 nv         1 1TM      -0.535500
     11 NAL         -4.2590     0.6770     0.9080 nd         1 1TM      -0.734800
     12 NAA         -4.2880    -0.5900     1.5040 na         1 1TM       0.462400
     13 CAB         -3.0020    -1.0030     1.6870 cd         1 1TM      -0.161300
     14 CAC         -2.5700    -2.2860     2.2800 ca         1 1TM      -0.035000
     15 CAD         -1.5480    -3.0250     1.6800 ca         1 1TM      -0.068500
     16 CAE         -1.1460    -4.2200     2.2370 ca         1 1TM      -0.138500
     17 CAF         -1.7570    -4.6900     3.3920 ca         1 1TM       0.130100
     18 OAI         -1.3590    -5.8680     3.9370 oh         1 1TM      -0.500100
     19 CAG         -2.7750    -3.9580     3.9910 ca         1 1TM      -0.138500
     20 CAH         -3.1780    -2.7590     3.4440 ca         1 1TM      -0.068500
     21 H1          -0.5430    -0.0000    -0.9380 ha         1 1TM       0.111000
     22 H2           1.9200    -0.0010    -0.9390 ha         1 1TM       0.113500
     23 H3           3.7490    -0.8880     1.2300 ho         1 1TM       0.401000
     24 H4           1.9330     0.0020     3.3410 ha         1 1TM       0.113500
     25 H5          -0.5290     0.0030     3.3550 ha         1 1TM       0.111000
     26 H6          -3.2030     2.7740    -0.4100 hn         1 1TM       0.271300
     27 H7          -1.6680     2.5950     0.3750 hn         1 1TM       0.271300
     28 H9          -1.0710    -2.6590     0.7790 ha         1 1TM       0.112500
     29 H10         -0.3530    -4.7940     1.7720 ha         1 1TM       0.116000
     30 H11         -1.8500    -6.5750     3.5510 ho         1 1TM       0.404000
     31 H12         -3.2480    -4.3270     4.8940 ha         1 1TM       0.116000
     32 H13         -3.9720    -2.1890     3.9120 ha         1 1TM       0.112500
     33 H8          -5.1110    -1.1040     1.7480 hn         1 1TM       0.146700
@<TRIPOS>BOND
     1     1     2 ar  
     2     1     7 ar  
     3     1    21 1   
     4     2     3 ar  
     5     2    22 1   
     6     3     4 1   
     7     3     5 ar  
     8     4    23 1   
     9     5     6 ar  
    10     5    24 1   
    11     6     7 ar  
    12     6    25 1   
    13     7     8 1   
    14     8     9 1   
    15     8    13 2   
    16     9    10 1   
    17     9    11 2   
    18    10    26 1   
    19    10    27 1   
    20    11    12 1   
    21    12    13 1   
    22    12    33 1   
    23    13    14 1   
    24    14    15 ar  
    25    14    20 ar  
    26    15    16 ar  
    27    15    28 1   
    28    16    17 ar  
    29    16    29 1   
    30    17    18 1   
    31    17    19 ar  
    32    18    30 1   
    33    19    20 ar  
    34    19    31 1   
    35    20    32 1   
@<TRIPOS>SUBSTRUCTURE
     1 1TM         1 TEMP              0 ****  ****    0 ROOT
