@<TRIPOS>MOLECULE
1TM
   33    35     1     0     0
SMALL
bcc


@<TRIPOS>ATOM
      1 CAO         -0.1320     0.5980     0.0920 ca         1 1TM      -0.082000
      2 CAP          1.2510     0.7210     0.1540 ca         1 1TM      -0.190500
      3 CAQ          1.9230     0.3010     1.3140 ca         1 1TM       0.125100
      4 OAT          3.2920     0.4470     1.3180 oh         1 1TM      -0.497100
      5 CAR          1.2160    -0.2350     2.3990 ca         1 1TM      -0.190500
      6 CAS         -0.1690    -0.3490     2.3190 ca         1 1TM      -0.082000
      7 CAN         -0.8560     0.0640     1.1700 ca         1 1TM      -0.037000
      8 CAJ         -2.2900    -0.0760     1.0860 cc         1 1TM      -0.238300
      9 CAK         -3.0000    -1.2410     0.5490 cc         1 1TM       0.519200
     10 NAM         -2.3790    -2.3390    -0.0480 nv         1 1TM      -0.885500
     11 NAL         -4.3620    -1.0280     0.6310 nd         1 1TM      -0.560800
     12 NAA         -4.5190     0.1850     1.1610 na         1 1TM      -0.015600
     13 CAB         -3.3100     0.8250     1.4590 cd         1 1TM      -0.007300
     14 CAC         -3.2350     2.1530     2.0380 ca         1 1TM      -0.064000
     15 CAD         -4.1770     3.1380     1.7020 ca         1 1TM      -0.074500
     16 CAE         -4.1060     4.4090     2.2580 ca         1 1TM      -0.186000
     17 CAF         -3.0740     4.7030     3.1650 ca         1 1TM       0.134100
     18 OAI         -3.0580     5.9760     3.6850 oh         1 1TM      -0.494100
     19 CAG         -2.1220     3.7320     3.5060 ca         1 1TM      -0.186000
     20 CAH         -2.2080     2.4640     2.9410 ca         1 1TM      -0.074500
     21 H1          -0.6690     0.9200    -0.8140 ha         1 1TM       0.142000
     22 H2           1.8250     1.1380    -0.6850 ha         1 1TM       0.142500
     23 H3           3.6240     0.1130     2.1630 ho         1 1TM       0.418000
     24 H4           1.7500    -0.5630     3.3010 ha         1 1TM       0.142500
     25 H5          -0.7290    -0.7690     3.1690 ha         1 1TM       0.142000
     26 H6          -2.9490    -3.1580    -0.0860 hn         1 1TM       0.391300
     27 H7          -1.4800    -2.5130     0.3490 hn         1 1TM       0.391300
     28 H9          -4.9770     2.9170     0.9780 ha         1 1TM       0.142000
     29 H10         -4.8380     5.1870     1.9980 ha         1 1TM       0.146000
     30 H11         -2.2930     6.0490     4.2740 ho         1 1TM       0.422000
     31 H12         -1.3140     3.9700     4.2120 ha         1 1TM       0.146000
     32 H13         -1.4600     1.6950     3.1960 ha         1 1TM       0.142000
     33 H8          -5.4310     0.5530     1.2960 hn         1 1TM       0.322700
@<TRIPOS>BOND
     1     1     2 ar  
     2     1     7 ar  
     3     1    21 1   
     4     2     3 ar  
     5     2    22 1   
     6     3     4 1   
     7     3     5 ar  
     8     4    23 1   
     9     5     6 ar  
    10     5    24 1   
    11     6     7 ar  
    12     6    25 1   
    13     7     8 1   
    14     8     9 1   
    15     8    13 2   
    16     9    10 1   
    17     9    11 2   
    18    10    26 1   
    19    10    27 1   
    20    11    12 1   
    21    12    13 1   
    22    12    33 1   
    23    13    14 1   
    24    14    15 ar  
    25    14    20 ar  
    26    15    16 ar  
    27    15    28 1   
    28    16    17 ar  
    29    16    29 1   
    30    17    18 1   
    31    17    19 ar  
    32    18    30 1   
    33    19    20 ar  
    34    19    31 1   
    35    20    32 1   
@<TRIPOS>SUBSTRUCTURE
     1 1TM         1 TEMP              0 ****  ****    0 ROOT
