@<TRIPOS>MOLECULE
1TN
   44    45     1     0     0
SMALL
bcc


@<TRIPOS>ATOM
      1 C10          0.0000     0.0000     0.0000 c3         1 1TN      -0.029400
      2 C15          6.7890     0.0860    -6.9610 ca         1 1TN       0.240100
      3 C17          8.6520     0.3040    -8.4540 ca         1 1TN       0.023000
      4 C20          7.6600     0.0700    -5.8800 ca         1 1TN      -0.219000
      5 C01          4.3090    -1.1970    -3.5130 ca         1 1TN      -0.111000
      6 C02          4.7690    -1.2030    -4.8170 ca         1 1TN      -0.085000
      7 C03          4.9970    -0.0050    -5.4750 ca         1 1TN       0.053100
      8 C04          4.7610     1.2010    -4.8210 ca         1 1TN       0.127100
      9 C05          4.3010     1.1980    -3.5140 ca         1 1TN      -0.153000
     10 C06          4.0710     0.0000    -2.8650 ca         1 1TN      -0.057300
     11 C07          3.5690    -0.0010    -1.4440 c3         1 1TN       0.025900
     12 C08          2.0390    -0.0000    -1.4430 c3         1 1TN      -0.025400
     13 C09          1.5300     0.0000     0.0000 c3         1 1TN      -0.029400
     14 C11         -0.5090     0.0000     1.4430 c3         1 1TN      -0.028400
     15 O14          5.4490    -0.0080    -6.7580 os         1 1TN      -0.169200
     16 C16          7.2900     0.2030    -8.2500 ca         1 1TN      -0.491200
     17 C18          9.5170     0.2870    -7.3760 ca         1 1TN      -0.165000
     18 C19          9.0210     0.1720    -6.0900 ca         1 1TN       0.002000
     19 N21          6.3650     0.2190    -9.4060 no         1 1TN       1.057200
     20 O22          6.8040     0.3230   -10.5360 o          1 1TN      -0.451500
     21 O23          5.1630     0.1310    -9.2250 o          1 1TN      -0.451500
     22 H1          -0.3610     0.8850    -0.5110 hc         1 1TN       0.015700
     23 H2          -0.3610    -0.8850    -0.5110 hc         1 1TN       0.015700
     24 H3           9.0440     0.3950    -9.4600 ha         1 1TN       0.132000
     25 H4           7.2720    -0.0210    -4.8730 ha         1 1TN       0.135000
     26 H5           4.1290    -2.1340    -3.0000 ha         1 1TN       0.114000
     27 H6           4.9530    -2.1430    -5.3230 ha         1 1TN       0.119000
     28 H7           4.1150     2.1360    -3.0040 ha         1 1TN       0.121000
     29 H8           3.9300    -0.8860    -0.9350 hc         1 1TN       0.021200
     30 H9           3.9310     0.8830    -0.9330 hc         1 1TN       0.021200
     31 H10          1.6780     0.8850    -1.9530 hc         1 1TN       0.018700
     32 H11          1.8910    -0.8850     0.5110 hc         1 1TN       0.014700
     33 H12         -0.1470     0.8840     1.9530 hc         1 1TN       0.011700
     34 H13         -0.1480    -0.8850     1.9530 hc         1 1TN       0.011700
     35 H15          4.1760     2.8620    -5.5240 ho         1 1TN       0.412000
     36 H16         10.5850     0.3670    -7.5380 ha         1 1TN       0.116000
     37 H17          9.7000     0.1590    -5.2460 ha         1 1TN       0.104000
     38 C12         -2.0390     0.0010     1.4440 c3         1 1TN       0.006900
     39 H18          1.6770    -0.8840    -1.9530 hc         1 1TN       0.018700
     40 H19          1.8910     0.8850     0.5110 hc         1 1TN       0.014700
     41 H14         -2.4000     0.8860     0.9350 hc         1 1TN       0.000700
     42 H20         -2.3990    -0.0000     2.4660 hc         1 1TN       0.000700
     43 H21         -2.4010    -0.8830     0.9330 hc         1 1TN       0.000700
     44 O13          4.9840     2.3790    -5.4630 oh         1 1TN      -0.488100
@<TRIPOS>BOND
     1     1    13 1   
     2     1    14 1   
     3     1    22 1   
     4     1    23 1   
     5     2     4 ar  
     6     2    15 1   
     7     2    16 ar  
     8     3    16 ar  
     9     3    17 ar  
    10     3    24 1   
    11     4    18 ar  
    12     4    25 1   
    13     5     6 ar  
    14     5    10 ar  
    15     5    26 1   
    16     6     7 ar  
    17     6    27 1   
    18     7     8 ar  
    19     7    15 1   
    20     8     9 ar  
    21     8    44 1   
    22     9    10 ar  
    23     9    28 1   
    24    10    11 1   
    25    11    12 1   
    26    11    29 1   
    27    11    30 1   
    28    12    13 1   
    29    12    31 1   
    30    12    39 1   
    31    13    32 1   
    32    13    40 1   
    33    14    33 1   
    34    14    34 1   
    35    14    38 1   
    36    16    19 1   
    37    17    18 ar  
    38    17    36 1   
    39    18    37 1   
    40    19    20 1   
    41    19    21 1   
    42    35    44 1   
    43    38    41 1   
    44    38    42 1   
    45    38    43 1   
@<TRIPOS>SUBSTRUCTURE
     1 1TN         1 TEMP              0 ****  ****    0 ROOT
