@<TRIPOS>MOLECULE
1TP
   54    55     1     0     0
SMALL
bcc


@<TRIPOS>ATOM
      1 N1'          0.0270    -0.6180    -0.1280 nb         1 1TP      -0.762000
      2 C2'          1.3740    -0.3980    -0.1490 ca         1 1TP       0.645300
      3 C2A          2.0820    -0.5890    -1.4710 c3         1 1TP      -0.121400
      4 N3'          2.1530    -0.0450     0.9140 nb         1 1TP      -0.802000
      5 C4'          1.5180     0.1080     2.1280 ca         1 1TP       0.690200
      6 N4'          2.2440     0.5960     3.2010 nv         1 1TP      -0.941500
      7 C5'          0.1040    -0.1450     2.2520 ca         1 1TP      -0.322900
      8 C6'         -0.5690    -0.5040     1.0820 ca         1 1TP       0.439200
      9 C7'         -0.6280    -0.0210     3.5620 c3         1 1TP       0.234100
     10 N3          -0.2900    -1.0740     4.4860 n3         1 1TP      -0.785600
     11 C2           0.2700    -0.7380     5.7800 c3         1 1TP       0.321600
     12 S1          -0.1610    -2.0800     6.9430 ss         1 1TP      -0.376200
     13 C5          -0.6710    -3.1990     5.6160 c3         1 1TP       0.065400
     14 C4          -1.2100    -2.2260     4.5460 c3         1 1TP       0.198500
     15 C4A         -2.6760    -1.8730     4.7820 c3         1 1TP      -0.131100
     16 C5A         -1.6030    -4.2980     6.0580 c3         1 1TP      -0.120400
     17 C5B         -0.8400    -5.5160     6.6210 c3         1 1TP       0.237400
     18 O5G         -1.7020    -6.5380     6.9330 os         1 1TP      -0.566200
     19 P1          -1.4770    -7.9880     6.0310 p5         1 1TP       1.579800
     20 O11         -2.1970    -9.0770     6.8820 os         1 1TP      -0.806800
     21 O12         -2.1380    -7.6250     4.7440 o          1 1TP      -0.930500
     22 O13          0.0130    -8.0910     5.9970 o          1 1TP      -0.930500
     23 P2          -2.9430   -10.4540     7.7330 p5         1 1TP       1.465900
     24 O21         -4.4050   -10.1080     7.8240 o          1 1TP      -0.964833
     25 O22         -2.6420   -11.6220     6.8300 o          1 1TP      -0.964833
     26 O23         -2.2440   -10.5100     9.0650 o          1 1TP      -0.964833
     27 C15          0.0800     0.6630     6.4100 c3         1 1TP       0.022800
     28 O25          1.2000     1.4230     5.9240 oh         1 1TP      -0.674800
     29 C35          0.2260     0.5570     7.9240 c3         1 1TP      -0.090100
     30 C25         -1.2410     1.4390     6.1120 c          1 1TP       0.898600
     31 O35         -1.0970     2.5520     5.5070 o          1 1TP      -0.831800
     32 O45         -2.3490     1.0030     6.5030 o          1 1TP      -0.831800
     33 H2A1         2.3390    -1.6710    -1.5850 hc         1 1TP       0.039033
     34 H2A2         3.0220     0.0110    -1.5160 hc         1 1TP       0.039033
     35 H2A3         1.4210    -0.2850    -2.3190 hc         1 1TP       0.039033
     36 H4'1         3.2270     0.4680     3.1840 hn         1 1TP       0.435300
     37 H4'2         1.8100     0.5380     4.1030 hn         1 1TP       0.435300
     38 H6'         -1.6520    -0.7250     1.1050 h4         1 1TP       0.024100
     39 H7'1        -0.3830     0.9980     3.9900 h1         1 1TP       0.072700
     40 H7'2        -1.7350    -0.0110     3.3380 h1         1 1TP       0.072700
     41 H2           1.3920    -0.8440     5.6530 h2         1 1TP       0.037700
     42 H5           0.2650    -3.6760     5.2180 h1         1 1TP       0.071700
     43 H4          -1.1270    -2.7350     3.5400 h1         1 1TP       0.054700
     44 H4A1        -3.1210    -1.4070     3.8690 hc         1 1TP       0.050033
     45 H4A2        -2.7820    -1.1570     5.6380 hc         1 1TP       0.050033
     46 H4A3        -3.2560    -2.8000     5.0100 hc         1 1TP       0.050033
     47 H5A1        -2.3220    -3.9240     6.8300 hc         1 1TP       0.060700
     48 H5A2        -2.2000    -4.6590     5.1770 hc         1 1TP       0.060700
     49 H5B1        -0.3050    -5.1690     7.5560 h1         1 1TP      -0.004800
     50 H5B2        -0.0670    -5.8510     5.8720 h1         1 1TP      -0.004800
     51 H25          0.8600     2.2670     5.5860 ho         1 1TP       0.425000
     52 H351         0.2660     1.5810     8.3660 hc         1 1TP       0.037367
     53 H352        -0.6600     0.0110     8.3330 hc         1 1TP       0.037367
     54 H353         1.1620     0.0140     8.1940 hc         1 1TP       0.037367
@<TRIPOS>BOND
     1     1     2 ar  
     2     1     8 ar  
     3     2     3 1   
     4     2     4 ar  
     5     3    33 1   
     6     3    34 1   
     7     3    35 1   
     8     4     5 ar  
     9     5     6 1   
    10     5     7 ar  
    11     6    36 1   
    12     6    37 1   
    13     7     8 ar  
    14     7     9 1   
    15     8    38 1   
    16     9    10 1   
    17     9    39 1   
    18     9    40 1   
    19    10    11 1   
    20    10    14 1   
    21    11    12 1   
    22    11    27 1   
    23    11    41 1   
    24    12    13 1   
    25    13    14 1   
    26    13    16 1   
    27    13    42 1   
    28    14    15 1   
    29    14    43 1   
    30    15    44 1   
    31    15    45 1   
    32    15    46 1   
    33    16    17 1   
    34    16    47 1   
    35    16    48 1   
    36    17    18 1   
    37    17    49 1   
    38    17    50 1   
    39    18    19 1   
    40    19    20 1   
    41    19    21 1   
    42    19    22 1   
    43    20    23 1   
    44    23    24 1   
    45    23    25 1   
    46    23    26 1   
    47    27    28 1   
    48    27    29 1   
    49    27    30 1   
    50    28    51 1   
    51    29    52 1   
    52    29    53 1   
    53    29    54 1   
    54    30    31 1   
    55    30    32 1   
@<TRIPOS>SUBSTRUCTURE
     1 1TP         1 TEMP              0 ****  ****    0 ROOT
