@<TRIPOS>MOLECULE
1TP
   54    55     1     0     0
SMALL
bcc


@<TRIPOS>ATOM
      1 N1'        -1.1150   -1.8260    2.3760 nb        1 1TP     -0.764000
      2 C2'        -0.6500   -1.6810    1.0980 ca        1 1TP      0.640300
      3 C2A        -1.2300   -2.6090    0.0540 c3        1 1TP     -0.119400
      4 N3'         0.2700   -0.7740    0.6710 nb        1 1TP     -0.789000
      5 C4'         0.7940    0.0830    1.6180 ca        1 1TP      0.688200
      6 N4'         1.8530    0.9040    1.2540 nh        1 1TP     -0.902500
      7 C5'         0.3320    0.0270    2.9820 ca        1 1TP     -0.342900
      8 C6'        -0.6240   -0.9520    3.2820 ca        1 1TP      0.448200
      9 C7'         0.8250    0.9570    4.0540 c3        1 1TP      0.225100
     10 N3          0.2180    2.2840    3.9940 n3        1 1TP     -0.710600
     11 C2          1.1900    3.3720    4.0470 c3        1 1TP      0.284600
     12 S1          1.1290    4.1240    5.7300 ss        1 1TP     -0.475200
     13 C5         -0.2600    3.1200    6.3000 c3        1 1TP      0.055400
     14 C4         -0.8410    2.5290    4.9970 c3        1 1TP      0.167500
     15 C4A        -1.7470    1.3610    5.3500 c3        1 1TP     -0.112100
     16 C5A        -1.2480    3.9300    7.1080 c3        1 1TP     -0.101400
     17 C5B        -1.6390    3.2760    8.4500 c3        1 1TP      0.218400
     18 O5G        -2.6240    2.3280    8.2900 os        1 1TP     -0.585200
     19 P1         -4.0540    2.5840    9.2000 p5        1 1TP      1.570800
     20 O11        -3.6010    2.3090   10.6690 os        1 1TP     -0.814800
     21 O12        -4.3310    4.0210    8.9070 o         1 1TP     -0.923000
     22 O13        -4.9650    1.5700    8.5980 o         1 1TP     -0.923000
     23 P2         -3.2610    2.0340   12.3920 p5        1 1TP      1.462900
     24 O21        -4.5760    2.3300   13.0650 o         1 1TP     -0.964833
     25 O22        -2.8370    0.5930   12.4770 o         1 1TP     -0.964833
     26 O23        -2.1650    3.0160   12.7080 o         1 1TP     -0.964833
     27 C15         1.0520    4.4360    2.9180 c3        1 1TP      0.065800
     28 O25         1.8940    5.5450    3.2500 oh        1 1TP     -0.613800
     29 C35        -0.3510    4.9790    2.7610 c3        1 1TP     -0.063100
     30 C25         1.6090    3.8420    1.5930 c         1 1TP      0.881600
     31 O35         0.8610    3.5740    0.6150 o         1 1TP     -0.858300
     32 O45         2.8690    3.6500    1.5550 o         1 1TP     -0.858300
     33 H2A1       -0.6490   -2.5660   -0.8980 hc        1 1TP      0.036033
     34 H2A2       -2.2850   -2.3040   -0.1540 hc        1 1TP      0.036033
     35 H2A3       -1.2270   -3.6600    0.4310 hc        1 1TP      0.036033
     36 H4'1        1.8230    1.2770    0.3250 hn        1 1TP      0.435300
     37 H4'2        2.0660    1.6240    1.9210 hn        1 1TP      0.435300
     38 H6'        -1.0390   -1.0390    4.3060 h4        1 1TP      0.042100
     39 H7'1        0.6300    0.4650    5.0540 h1        1 1TP      0.041700
     40 H7'2        1.9500    1.0190    3.9670 h1        1 1TP      0.041700
     41 H2          2.2480    2.9940    3.9510 h2        1 1TP      0.060700
     42 H5          0.1600    2.2980    6.9340 h1        1 1TP      0.076700
     43 H4         -1.4900    3.3250    4.5140 h1        1 1TP      0.072700
     44 H4A1       -2.5040    1.7260    6.1030 hc        1 1TP      0.061367
     45 H4A2       -2.2670    0.9720    4.4430 hc        1 1TP      0.061367
     46 H4A3       -1.1920    0.5270    5.8410 hc        1 1TP      0.061367
     47 H5A1       -0.7950    4.9320    7.3300 hc        1 1TP      0.043200
     48 H5A2       -2.1860    4.1040    6.5190 hc        1 1TP      0.043200
     49 H5B1       -0.7140    2.7980    8.8880 h1        1 1TP      0.019200
     50 H5B2       -1.9920    4.0940    9.1430 h1        1 1TP      0.019200
     51 H25         2.8010    5.2470    3.0910 ho        1 1TP      0.403000
     52 H351       -0.7520    5.3080    3.7490 hc        1 1TP      0.039033
     53 H352       -0.3350    5.8520    2.0660 hc        1 1TP      0.039033
     54 H353       -1.0010    4.1840    2.3260 hc        1 1TP      0.039033
@<TRIPOS>BOND
     1    1    2 ar  
     2    1    8 ar  
     3    2    3 1   
     4    2    4 ar  
     5    3   33 1   
     6    3   34 1   
     7    3   35 1   
     8    4    5 ar  
     9    5    6 1   
    10    5    7 ar  
    11    6   36 1   
    12    6   37 1   
    13    7    8 ar  
    14    7    9 1   
    15    8   38 1   
    16    9   10 1   
    17    9   39 1   
    18    9   40 1   
    19   10   11 1   
    20   10   14 1   
    21   11   12 1   
    22   11   27 1   
    23   11   41 1   
    24   12   13 1   
    25   13   14 1   
    26   13   16 1   
    27   13   42 1   
    28   14   15 1   
    29   14   43 1   
    30   15   44 1   
    31   15   45 1   
    32   15   46 1   
    33   16   17 1   
    34   16   47 1   
    35   16   48 1   
    36   17   18 1   
    37   17   49 1   
    38   17   50 1   
    39   18   19 1   
    40   19   20 1   
    41   19   21 1   
    42   19   22 1   
    43   20   23 1   
    44   23   24 1   
    45   23   25 1   
    46   23   26 1   
    47   27   28 1   
    48   27   29 1   
    49   27   30 1   
    50   28   51 1   
    51   29   52 1   
    52   29   53 1   
    53   29   54 1   
    54   30   31 1   
    55   30   32 1   
@<TRIPOS>SUBSTRUCTURE
     1 1TP         1 TEMP              0 ****  ****    0 ROOT
