@<TRIPOS>MOLECULE
molecule
   54    55     1     0     0
SMALL
bcc


@<TRIPOS>ATOM
      1 N1'          0.0000     0.0000     0.0000 nb         1 1TP      -0.778000
      2 C2'          1.3180     0.0000     0.0000 ca         1 1TP       0.647300
      3 C2A          2.0510     0.0000    -1.3170 c3         1 1TP      -0.106400
      4 N3'          2.0130     0.0000     1.1190 nb         1 1TP      -0.804000
      5 C4'          1.4000     0.0050     2.2990 ca         1 1TP       0.751200
      6 N4'          2.1340     0.0040     3.4730 nv         1 1TP      -1.059500
      7 C5'          0.0040    -0.0010     2.3350 ca         1 1TP      -0.295900
      8 C6'         -0.6820    -0.0000     1.1360 ca         1 1TP       0.505200
      9 C7'         -0.7350    -0.0020     3.6480 c3         1 1TP       0.186100
     10 N3          -1.1990     1.3600     3.9490 n3         1 1TP      -0.656600
     11 C2           0.0100     2.1750     4.2010 c3         1 1TP       0.276600
     12 S1          -0.5630     3.2450     5.5940 ss         1 1TP      -0.254200
     13 C5          -1.7430     2.0240     6.3240 c3         1 1TP       0.031400
     14 C4          -2.1490     1.2450     5.0490 c3         1 1TP       0.160500
     15 C4A         -2.2990    -0.2340     5.4090 c3         1 1TP      -0.121100
     16 C5A         -2.9480     2.7220     6.9560 c3         1 1TP      -0.069400
     17 C5B         -2.5270     3.3720     8.2750 c3         1 1TP       0.148400
     18 O5G         -3.6520     4.0240     8.8660 os         1 1TP      -0.531200
     19 P1          -3.1390     4.6830    10.2430 p5         1 1TP       1.164800
     20 O11         -2.3130     3.7160    10.9680 os         1 1TP      -0.649800
     21 O12         -2.2670     5.9970     9.9170 o          1 1TP      -0.784000
     22 O13         -4.4060     5.0900    11.1480 o          1 1TP      -0.784000
     23 P2          -1.8360     4.4370    12.3260 p5         1 1TP       1.168900
     24 O21         -3.0220     4.8160    13.1250 o          1 1TP      -0.886167
     25 O22         -0.9180     3.4240    13.1770 o          1 1TP      -0.886167
     26 O23         -0.9880     5.7560    11.9650 o          1 1TP      -0.886167
     27 C15          0.3760     3.0160     2.9760 c3         1 1TP       0.063800
     28 O25          0.7380     2.1520     1.8960 oh         1 1TP      -0.627800
     29 C35          1.5570     3.9260     3.3170 c3         1 1TP      -0.103100
     30 C25         -0.8070     3.8570     2.5720 c          1 1TP       0.880600
     31 O35         -1.6450     4.1540     3.3900 o          1 1TP      -0.829300
     32 O45         -0.9300     4.2760     1.3030 o          1 1TP      -0.829300
     33 H2A1         1.3900     0.3560    -2.0980 hc         1 1TP       0.032033
     34 H2A2         2.3760    -1.0060    -1.5500 hc         1 1TP       0.032033
     35 H2A3         2.9140     0.6520    -1.2500 hc         1 1TP       0.032033
     36 H4'1         2.8030     0.7290     3.6450 hn         1 1TP       0.429800
     37 H4'2         2.0470    -0.7570     4.1160 hn         1 1TP       0.429800
     38 H6'         -1.7530    -0.1670     1.1250 h4         1 1TP       0.015100
     39 H7'1        -1.5870    -0.6670     3.5820 h1         1 1TP       0.026700
     40 H7'2        -0.0730    -0.3400     4.4350 h1         1 1TP       0.026700
     41 H2           0.8380     1.5490     4.5120 h2         1 1TP       0.034700
     42 H5          -1.2410     1.3750     7.0310 h1         1 1TP       0.056700
     43 H4          -3.1080     1.6200     4.7110 h1         1 1TP       0.089700
     44 H4A1        -2.9620    -0.3340     6.2600 hc         1 1TP       0.025700
     45 H4A2        -2.7130    -0.7720     4.5640 hc         1 1TP       0.025700
     46 H4A3        -1.3280    -0.6460     5.6580 hc         1 1TP       0.025700
     47 H5A1        -3.7290     1.9950     7.1450 hc         1 1TP       0.047200
     48 H5A2        -3.3200     3.4830     6.2810 hc         1 1TP       0.047200
     49 H5B1        -1.7460     4.0990     8.0860 h1         1 1TP       0.046200
     50 H5B2        -2.1550     2.6110     8.9510 h1         1 1TP       0.046200
     51 H25          0.9770     2.6710     1.1460 ho         1 1TP       0.402000
     52 H351         2.3620     3.3330     3.7350 hc         1 1TP       0.027700
     53 H352         1.9030     4.4220     2.4180 hc         1 1TP       0.027700
     54 H353         1.2430     4.6690     4.0410 hc         1 1TP       0.027700
@<TRIPOS>BOND
     1     1     2 ar  
     2     1     8 ar  
     3     2     3 1   
     4     2     4 ar  
     5     3    33 1   
     6     3    34 1   
     7     3    35 1   
     8     4     5 ar  
     9     5     6 1   
    10     5     7 ar  
    11     6    36 1   
    12     6    37 1   
    13     7     8 ar  
    14     7     9 1   
    15     8    38 1   
    16     9    10 1   
    17     9    39 1   
    18     9    40 1   
    19    10    11 1   
    20    10    14 1   
    21    11    12 1   
    22    11    27 1   
    23    11    41 1   
    24    12    13 1   
    25    13    14 1   
    26    13    16 1   
    27    13    42 1   
    28    14    15 1   
    29    14    43 1   
    30    15    44 1   
    31    15    45 1   
    32    15    46 1   
    33    16    17 1   
    34    16    47 1   
    35    16    48 1   
    36    17    18 1   
    37    17    49 1   
    38    17    50 1   
    39    18    19 1   
    40    19    20 1   
    41    19    21 1   
    42    19    22 1   
    43    20    23 1   
    44    23    24 1   
    45    23    25 1   
    46    23    26 1   
    47    27    28 1   
    48    27    29 1   
    49    27    30 1   
    50    28    51 1   
    51    29    52 1   
    52    29    53 1   
    53    29    54 1   
    54    30    31 1   
    55    30    32 1   
@<TRIPOS>SUBSTRUCTURE
     1 1TP         1 TEMP              0 ****  ****    0 ROOT
