@<TRIPOS>MOLECULE
1TR
   47    50     1     0     0
SMALL
bcc


@<TRIPOS>ATOM
      1 C4           0.0500     0.0250     0.0560 ca         1 1TR       0.540100
      2 C5           1.4560     0.0230    -0.0110 ca         1 1TR      -0.394600
      3 C6           2.1480     0.0060     1.2200 ca         1 1TR       0.476200
      4 N1           1.5410    -0.0020     2.4090 nb         1 1TR      -0.726000
      5 N3          -0.6270     0.0250     1.2330 nb         1 1TR      -0.785000
      6 CAV          1.0590    -2.5020    -1.8500 ca         1 1TR      -0.071500
      7 CAW          2.1140    -3.3570    -2.1430 ca         1 1TR      -0.172000
      8 CAX          2.8330    -3.1880    -3.3430 ca         1 1TR       0.153900
      9 FAY          3.8620    -4.0140    -3.6330 f          1 1TR      -0.125900
     10 CAZ          2.4790    -2.1640    -4.2420 ca         1 1TR      -0.172000
     11 CBA          1.4170    -1.3200    -3.9370 ca         1 1TR      -0.071500
     12 CAU          0.7070    -1.4750    -2.7380 ca         1 1TR      -0.075800
     13 CAI         -0.4200    -0.6030    -2.4420 cc         1 1TR       0.171400
     14 NAH         -1.3910    -0.3030    -3.3860 nc         1 1TR      -0.241600
     15 CAG         -2.3020     0.4930    -2.7540 cd         1 1TR      -0.059300
     16 CAF         -3.5040     1.0830    -3.2490 cd         1 1TR      -0.033000
     17 CAE         -4.2630     1.8590    -2.4050 cc         1 1TR      -0.179300
     18 CAD         -5.5470     2.4530    -2.8650 c3         1 1TR       0.179100
     19 NAB         -5.4010     3.9300    -3.1530 nx         1 1TR      -0.685400
     20 CAC         -4.6700     4.1570    -4.4260 c3         1 1TR       0.080600
     21 CAA         -6.7270     4.5960    -3.1790 c3         1 1TR       0.080600
     22 CAM         -3.8550     2.0710    -1.0530 cc         1 1TR      -0.208000
     23 CAL         -2.7030     1.4970    -0.5640 cd         1 1TR      -0.007300
     24 NAK         -1.9180     0.7180    -1.3820 na         1 1TR       0.040700
     25 CAJ         -0.7170     0.0330    -1.1900 cd         1 1TR      -0.198900
     26 C2           0.1430     0.0210     2.3880 ca         1 1TR       0.878900
     27 NAQ         -0.5210     0.1150     3.6110 nv         1 1TR      -0.924500
     28 H1           1.9880     0.0200    -0.9690 ha         1 1TR       0.171000
     29 H2           3.2550    -0.0060     1.2450 h4         1 1TR       0.043100
     30 H3           0.4930    -2.6350    -0.9150 ha         1 1TR       0.148000
     31 H4           2.3910    -4.1670    -1.4510 ha         1 1TR       0.160000
     32 H5           3.0420    -2.0440    -5.1790 ha         1 1TR       0.160000
     33 H6           1.1330    -0.5280    -4.6480 ha         1 1TR       0.148000
     34 H7          -3.7850     0.8740    -4.2930 ha         1 1TR       0.170000
     35 H8          -6.3330     2.3420    -2.0620 hx         1 1TR       0.107700
     36 H9          -5.9170     1.9560    -3.8070 hx         1 1TR       0.107700
     37 H11         -4.4390     5.2500    -4.5340 hx         1 1TR       0.105033
     38 H12         -5.3030     3.8200    -5.2900 hx         1 1TR       0.105033
     39 H13         -3.7140     3.5650    -4.4090 hx         1 1TR       0.105033
     40 H14         -6.5940     5.6830    -3.4300 hx         1 1TR       0.105033
     41 H15         -7.3760     4.1100    -3.9560 hx         1 1TR       0.105033
     42 H16         -7.2140     4.5000    -2.1710 hx         1 1TR       0.105033
     43 H17         -4.4810     2.6700    -0.3760 ha         1 1TR       0.149000
     44 H18         -2.3730     1.6310     0.4840 h4         1 1TR       0.208000
     45 H19          0.0120    -0.0860     4.4260 hn         1 1TR       0.435800
     46 H20         -1.4770    -0.1530     3.6290 hn         1 1TR       0.435800
     47 HAB1        -4.8420     4.3370    -2.3880 hn         1 1TR       0.453800
@<TRIPOS>BOND
     1     1     2 ar  
     2     1     5 ar  
     3     1    25 1   
     4     2     3 ar  
     5     2    28 1   
     6     3     4 ar  
     7     3    29 1   
     8     4    26 ar  
     9     5    26 ar  
    10     6     7 ar  
    11     6    12 ar  
    12     6    30 1   
    13     7     8 ar  
    14     7    31 1   
    15     8     9 1   
    16     8    10 ar  
    17    10    11 ar  
    18    10    32 1   
    19    11    12 ar  
    20    11    33 1   
    21    12    13 1   
    22    13    14 1   
    23    13    25 2   
    24    14    15 2   
    25    15    16 1   
    26    15    24 1   
    27    16    17 2   
    28    16    34 1   
    29    17    18 1   
    30    17    22 1   
    31    18    19 1   
    32    18    35 1   
    33    18    36 1   
    34    19    20 1   
    35    19    21 1   
    36    19    47 1   
    37    20    37 1   
    38    20    38 1   
    39    20    39 1   
    40    21    40 1   
    41    21    41 1   
    42    21    42 1   
    43    22    23 2   
    44    22    43 1   
    45    23    24 1   
    46    23    44 1   
    47    24    25 1   
    48    26    27 1   
    49    27    45 1   
    50    27    46 1   
@<TRIPOS>SUBSTRUCTURE
     1 1TR         1 TEMP              0 ****  ****    0 ROOT
