@<TRIPOS>MOLECULE
molecule
   46    49     1     0     0
SMALL
bcc


@<TRIPOS>ATOM
      1 C4           0.0000     0.0000     0.0000 ca         1 1TR       0.608100
      2 C5           1.4040     0.0000     0.0000 ca         1 1TR      -0.461600
      3 C6           2.0590     0.0000     1.2150 ca         1 1TR       0.508200
      4 N1           1.3510    -0.0010     2.3360 nb         1 1TR      -0.808000
      5 N3          -0.6460    -0.0000     1.1680 nb         1 1TR      -0.794000
      6 CAV         -4.3020    -0.8270    -0.4900 ca         1 1TR      -0.058000
      7 CAW         -5.1230    -1.3880     0.4670 ca         1 1TR      -0.183000
      8 CAX         -4.5840    -2.1760     1.4690 ca         1 1TR       0.136900
      9 FAY         -5.3920    -2.7240     2.4030 f          1 1TR      -0.145900
     10 CAZ         -3.2180    -2.4050     1.5180 ca         1 1TR      -0.183000
     11 CBA         -2.3890    -1.8490     0.5660 ca         1 1TR      -0.058000
     12 CAU         -2.9260    -1.0540    -0.4450 ca         1 1TR      -0.030800
     13 CAI         -2.0410    -0.4580    -1.4730 cc         1 1TR       0.201400
     14 NAH         -2.3470    -0.2670    -2.7590 nc         1 1TR      -0.317600
     15 CAG         -1.3170     0.2900    -3.3850 cd         1 1TR      -0.003300
     16 CAF         -1.1360     0.6850    -4.7250 cd         1 1TR      -0.091000
     17 CAE          0.0460     1.2420    -5.1040 cc         1 1TR      -0.069300
     18 CAD          0.2580     1.6720    -6.5330 c3         1 1TR       0.210100
     19 NAB         -0.0550     3.1020    -6.6660 n3         1 1TR      -0.729600
     20 CAC          0.3620     3.6130    -7.9790 c3         1 1TR       0.150100
     21 CAA         -1.4840     3.3520    -6.4330 c3         1 1TR       0.150100
     22 CAM          1.0670     1.4140    -4.1580 cc         1 1TR      -0.135000
     23 CAL          0.8790     1.0290    -2.8770 cd         1 1TR      -0.091300
     24 NAK         -0.3010     0.4710    -2.4860 na         1 1TR       0.068700
     25 CAJ         -0.7470     0.0060    -1.2680 cd         1 1TR      -0.288900
     26 C2           0.0260    -0.0000     2.3080 ca         1 1TR       0.951900
     27 NAQ         -0.6730    -0.0010     3.5030 nv         1 1TR      -0.986500
     28 H1           1.9590     0.0000    -0.9300 ha         1 1TR       0.142000
     29 H2           3.1420    -0.0000     1.2520 h4         1 1TR       0.028100
     30 H3          -4.7240    -0.2100    -1.2740 ha         1 1TR       0.147500
     31 H4          -6.1910    -1.2120     0.4330 ha         1 1TR       0.143500
     32 H5          -2.8010    -3.0230     2.3040 ha         1 1TR       0.143500
     33 H6          -1.3210    -2.0290     0.6050 ha         1 1TR       0.147500
     34 H7          -1.8700     0.4110    -5.4740 ha         1 1TR       0.162000
     35 H8          -0.3920     1.0980    -7.1820 h1         1 1TR       0.044200
     36 H9           1.2900     1.5010    -6.8120 h1         1 1TR       0.044200
     37 H11         -0.2090     3.1190    -8.7560 h1         1 1TR       0.035367
     38 H12          1.4170     3.4150    -8.1240 h1         1 1TR       0.035367
     39 H13          0.1840     4.6800    -8.0240 h1         1 1TR       0.035367
     40 H14         -1.7660     4.2910    -6.8950 h1         1 1TR       0.035367
     41 H15         -2.0660     2.5480    -6.8650 h1         1 1TR       0.035367
     42 H16         -1.6730     3.4030    -5.3680 h1         1 1TR       0.035367
     43 H17          2.0100     1.8570    -4.4550 ha         1 1TR       0.158000
     44 H18          1.6730     1.1660    -2.1530 h4         1 1TR       0.171000
     45 H19         -0.1770     0.0010     4.3730 hn         1 1TR       0.452800
     46 H20         -1.6730     0.0150     3.4980 hn         1 1TR       0.452800
@<TRIPOS>BOND
     1     9     8 1
     2     8    10 ar
     3     8     7 ar
     4    10    11 ar
     5     7     6 ar
     6     3     2 ar
     7     3     4 ar
     8    11    12 ar
     9     6    12 ar
    10     2     1 ar
    11     4    26 ar
    12    12    13 1
    13    26     5 ar
    14    26    27 1
    15     1     5 ar
    16     1    25 1
    17    13    25 2
    18    13    14 1
    19    25    24 1
    20    14    15 2
    21    24    15 1
    22    24    23 1
    23    15    16 1
    24    23    22 2
    25    16    17 2
    26    22    17 1
    27    17    18 1
    28    18    19 1
    29    20    19 1
    30    19    21 1
    31     2    28 1
    32     3    29 1
    33     6    30 1
    34     7    31 1
    35    10    32 1
    36    11    33 1
    37    16    34 1
    38    18    35 1
    39    18    36 1
    40    20    37 1
    41    20    38 1
    42    20    39 1
    43    21    40 1
    44    21    41 1
    45    21    42 1
    46    22    43 1
    47    23    44 1
    48    27    45 1
    49    27    46 1
@<TRIPOS>SUBSTRUCTURE
     1 1TR         1 TEMP              0 ****  ****    0 ROOT
