@<TRIPOS>MOLECULE
molecule
   53    56     1     0     0
SMALL
bcc


@<TRIPOS>ATOM
      1 C1           0.0000     0.0000     0.0000 c          1 1TT       0.711500
      2 C2           1.5170     0.0000     0.0000 c3         1 1TT      -0.252700
      3 C3           1.9800     0.0000     1.4430 c2         1 1TT       0.670200
      4 C8          -1.6700     2.1710     3.1060 c3         1 1TT       0.133500
      5 C9          -2.5730     1.9170     1.9130 c3         1 1TT      -0.094400
      6 C10         -2.0420     0.7870     1.0520 c3         1 1TT       0.102000
      7 C13         -1.6410     0.9180     3.9850 c3         1 1TT       0.568900
      8 C20          5.0530    -0.6050     3.1570 c3         1 1TT       0.119400
      9 C21          3.5260    -0.7210     3.2340 c3         1 1TT       0.215500
     10 C24         -0.6970     3.8010     5.7250 ca         1 1TT      -0.101000
     11 C30          2.9500     0.5160     3.9250 c3         1 1TT      -0.088100
     12 N4           1.3700     0.8070     2.2720 n2         1 1TT      -0.764900
     13 N5          -0.5980     0.8180     0.9210 n          1 1TT      -0.505800
     14 C6           0.2920     1.6360     1.7260 c3         1 1TT       0.559100
     15 N7          -0.3150     2.4950     2.7030 n3         1 1TT      -0.705600
     16 N11          2.9980    -0.8140     1.8630 nh         1 1TT      -0.769600
     17 O12         -0.6440    -0.6790    -0.7710 o          1 1TT      -0.615500
     18 F14         -0.9890    -0.1150     3.3020 f          1 1TT      -0.220300
     19 F15         -0.9560     1.1970     5.1730 f          1 1TT      -0.220300
     20 F16         -2.9500     0.5270     4.2820 f          1 1TT      -0.220300
     21 C17          3.5950    -1.8100     0.9590 c3         1 1TT       0.192800
     22 C18          5.1180    -1.6410     0.9920 c3         1 1TT       0.120400
     23 O19          5.5660    -1.6690     2.3510 os         1 1TT      -0.416600
     24 C23          0.1490     3.8970     4.6320 ca         1 1TT      -0.206600
     25 C25         -1.0460     4.9650     6.3950 ca         1 1TT      -0.101900
     26 C26         -0.5360     6.1730     5.9550 ca         1 1TT       0.429200
     27 N27          0.2720     6.2260     4.9150 nb         1 1TT      -0.679000
     28 C28          0.6150     5.1410     4.2480 ca         1 1TT       0.436200
     29 Cl1         -2.1100     4.9060     7.7660 cl         1 1TT      -0.097400
     30 H1           1.8830    -0.8880    -0.5010 hc         1 1TT       0.091200
     31 H2           1.8830     0.8880    -0.5010 hc         1 1TT       0.091200
     32 H3          -2.0720     2.9990     3.6790 h1         1 1TT       0.105700
     33 H4          -2.5080     2.8080     1.3010 hc         1 1TT       0.085200
     34 H5          -3.5090     1.5590     2.3240 hc         1 1TT       0.085200
     35 H6          -2.4830     0.8630     0.0660 h1         1 1TT       0.060700
     36 H7          -2.3310    -0.1570     1.4980 h1         1 1TT       0.060700
     37 H8           5.3200     0.3460     2.7130 h1         1 1TT       0.057700
     38 H9           5.4700    -0.6750     4.1550 h1         1 1TT       0.057700
     39 H10          3.2570    -1.6120     3.7870 h1         1 1TT       0.064700
     40 H11          0.4690     1.7950     4.5160 h1         1 1TT       0.084700
     41 H12          1.5860     2.7630     3.5440 h1         1 1TT       0.084700
     42 H14          3.4920     0.7020     4.8440 hc         1 1TT       0.053367
     43 H15          3.0460     1.3740     3.2700 hc         1 1TT       0.053367
     44 H16          1.9030     0.3500     4.1500 hc         1 1TT       0.053367
     45 H17          0.7730     2.3060     1.0240 h3         1 1TT       0.050700
     46 H19          3.3330    -2.8070     1.2910 h1         1 1TT       0.062700
     47 H20          3.2340    -1.6480    -0.0500 h1         1 1TT       0.062700
     48 H21          5.3860    -0.6910     0.5440 h1         1 1TT       0.055700
     49 H22          5.5830    -2.4500     0.4430 h1         1 1TT       0.055700
     50 H23         -0.8000     7.0870     6.4750 h4         1 1TT       0.035100
     51 H24          1.2820     5.2240     3.3980 h4         1 1TT       0.031100
     52 C22          0.5590     2.6620     3.8720 c3         1 1TT       0.187100
     53 H13         -1.0810     2.8410     6.0470 ha         1 1TT       0.171000
@<TRIPOS>BOND
     1    20     7 1
     2    19     7 1
     3    18     7 1
     4     7     4 1
     5     4     5 1
     6     4    15 1
     7    11     9 1
     8     6     5 1
     9     6    13 1
    10    52    15 1
    11    52    24 1
    12    15    14 1
    13    13    14 1
    14    13     1 1
    15    17     1 2
    16    14    12 1
    17     1     2 1
    18    12     3 2
    19     2     3 1
    20     3    16 1
    21     9    16 1
    22     9     8 1
    23    16    21 1
    24    21    22 1
    25    24    10 ar
    26    24    28 ar
    27    10    25 ar
    28    23     8 1
    29    23    22 1
    30    28    27 ar
    31    25    29 1
    32    25    26 ar
    33    27    26 ar
    34     2    30 1
    35     2    31 1
    36     4    32 1
    37     5    33 1
    38     5    34 1
    39     6    35 1
    40     6    36 1
    41     8    37 1
    42     8    38 1
    43     9    39 1
    44    52    40 1
    45    52    41 1
    46    10    53 1
    47    11    42 1
    48    11    43 1
    49    11    44 1
    50    14    45 1
    51    21    46 1
    52    21    47 1
    53    22    48 1
    54    22    49 1
    55    26    50 1
    56    28    51 1
@<TRIPOS>SUBSTRUCTURE
     1 1TT         1 TEMP              0 ****  ****    0 ROOT
