@<TRIPOS>MOLECULE
1TT
   53    56     1     0     0
SMALL
bcc


@<TRIPOS>ATOM
      1 C1           0.0000     0.0000     0.0000 c          1 1TT       0.641500
      2 C2           1.5170     0.0000     0.0000 c3         1 1TT      -0.187700
      3 C3           1.9800     0.0000     1.4430 c2         1 1TT       0.528200
      4 C8          -1.6700     2.1710     3.1060 c3         1 1TT       0.065500
      5 C9          -2.5730     1.9170     1.9130 c3         1 1TT      -0.035400
      6 C10         -2.0420     0.7870     1.0520 c3         1 1TT       0.044000
      7 C13         -1.6410     0.9180     3.9850 c3         1 1TT       0.542900
      8 C20          5.0530    -0.6050     3.1570 c3         1 1TT       0.191400
      9 C21          3.5260    -0.7210     3.2340 c3         1 1TT       0.119500
     10 C24         -0.6970     3.8010     5.7250 ca         1 1TT      -0.095000
     11 C30          2.9500     0.5160     3.9250 c3         1 1TT      -0.035100
     12 N4           1.3700     0.8070     2.2720 n2         1 1TT      -0.742900
     13 N5          -0.5980     0.8180     0.9210 n          1 1TT      -0.171800
     14 C6           0.2920     1.6360     1.7260 c3         1 1TT       0.405100
     15 N7          -0.3150     2.4950     2.7030 n3         1 1TT      -0.498600
     16 N11          2.9980    -0.8140     1.8630 nh         1 1TT      -0.389600
     17 O12         -0.6440    -0.6790    -0.7710 o          1 1TT      -0.653500
     18 F14         -0.9890    -0.1150     3.3020 f          1 1TT      -0.201967
     19 F15         -0.9560     1.1970     5.1730 f          1 1TT      -0.201967
     20 F16         -2.9500     0.5270     4.2820 f          1 1TT      -0.201967
     21 C17          3.5950    -1.8100     0.9590 c3         1 1TT       0.113800
     22 C18          5.1180    -1.6410     0.9920 c3         1 1TT       0.199400
     23 O19          5.5660    -1.6690     2.3510 os         1 1TT      -0.401600
     24 C23          0.1490     3.8970     4.6320 ca         1 1TT      -0.199600
     25 C25         -1.0460     4.9650     6.3950 ca         1 1TT      -0.158900
     26 C26         -0.5360     6.1730     5.9550 ca         1 1TT       0.406200
     27 N27          0.2720     6.2260     4.9150 nb         1 1TT      -0.571000
     28 C28          0.6150     5.1410     4.2480 ca         1 1TT       0.420200
     29 Cl1         -2.1100     4.9060     7.7660 cl         1 1TT      -0.006400
     30 H1           1.8830    -0.8880    -0.5010 hc         1 1TT       0.060200
     31 H2           1.8830     0.8880    -0.5010 hc         1 1TT       0.060200
     32 H3          -2.0720     2.9990     3.6790 h1         1 1TT       0.082700
     33 H4          -2.5080     2.8080     1.3010 hc         1 1TT       0.053700
     34 H5          -3.5090     1.5590     2.3240 hc         1 1TT       0.053700
     35 H6          -2.4830     0.8630     0.0660 h1         1 1TT       0.036200
     36 H7          -2.3310    -0.1570     1.4980 h1         1 1TT       0.036200
     37 H8           5.3200     0.3460     2.7130 h1         1 1TT       0.019700
     38 H9           5.4700    -0.6750     4.1550 h1         1 1TT       0.019700
     39 H10          3.2570    -1.6120     3.7870 h1         1 1TT       0.038700
     40 H11          0.4690     1.7950     4.5160 h1         1 1TT       0.062200
     41 H12          1.5860     2.7630     3.5440 h1         1 1TT       0.062200
     42 H14          3.4920     0.7020     4.8440 hc         1 1TT       0.032367
     43 H15          3.0460     1.3740     3.2700 hc         1 1TT       0.032367
     44 H16          1.9030     0.3500     4.1500 hc         1 1TT       0.032367
     45 H17          0.7730     2.3060     1.0240 h3         1 1TT       0.016700
     46 H19          3.3330    -2.8070     1.2910 h1         1 1TT       0.038700
     47 H20          3.2340    -1.6480    -0.0500 h1         1 1TT       0.038700
     48 H21          5.3860    -0.6910     0.5440 h1         1 1TT       0.016200
     49 H22          5.5830    -2.4500     0.4430 h1         1 1TT       0.016200
     50 H23         -0.8000     7.0870     6.4750 h4         1 1TT      -0.010900
     51 H24          1.2820     5.2240     3.3980 h4         1 1TT      -0.013900
     52 C22          0.5590     2.6620     3.8720 c3         1 1TT       0.152100
     53 H13         -1.0810     2.8410     6.0470 ha         1 1TT       0.142000
@<TRIPOS>BOND
     1     1     2 1   
     2     1    13 1   
     3     1    17 2   
     4     2     3 1   
     5     2    30 1   
     6     2    31 1   
     7     3    12 2   
     8     3    16 1   
     9     4     5 1   
    10     4     7 1   
    11     4    15 1   
    12     4    32 1   
    13     5     6 1   
    14     5    33 1   
    15     5    34 1   
    16     6    13 1   
    17     6    35 1   
    18     6    36 1   
    19     7    18 1   
    20     7    19 1   
    21     7    20 1   
    22     8     9 1   
    23     8    23 1   
    24     8    37 1   
    25     8    38 1   
    26     9    11 1   
    27     9    16 1   
    28     9    39 1   
    29    10    24 ar  
    30    10    25 ar  
    31    10    53 1   
    32    11    42 1   
    33    11    43 1   
    34    11    44 1   
    35    12    14 1   
    36    13    14 1   
    37    14    15 1   
    38    14    45 1   
    39    15    52 1   
    40    16    21 1   
    41    21    22 1   
    42    21    46 1   
    43    21    47 1   
    44    22    23 1   
    45    22    48 1   
    46    22    49 1   
    47    24    28 ar  
    48    24    52 1   
    49    25    26 ar  
    50    25    29 1   
    51    26    27 ar  
    52    26    50 1   
    53    27    28 ar  
    54    28    51 1   
    55    40    52 1   
    56    41    52 1   
@<TRIPOS>SUBSTRUCTURE
     1 1TT         1 TEMP              0 ****  ****    0 ROOT
