@<TRIPOS>MOLECULE
1TT
   53    56     1     0     0
SMALL
bcc


@<TRIPOS>ATOM
      1 C1           0.0770     0.8110     0.2620 c          1 1TT       0.692500
      2 C2           1.5860     0.8940     0.1980 c3         1 1TT      -0.233700
      3 C3           2.2470     0.4110     1.4770 c2         1 1TT       0.632200
      4 C8          -1.3290    -0.9560     3.5050 c3         1 1TT       0.189500
      5 C9          -2.2450    -0.6970     2.2960 c3         1 1TT      -0.107400
      6 C10         -1.9610     0.6450     1.6220 c3         1 1TT       0.090000
      7 C13         -0.5670    -2.3350     3.2610 c3         1 1TT       0.574900
      8 C20          5.5640    -0.9750     0.2900 c3         1 1TT       0.128400
      9 C21          4.0290    -0.9210     0.4580 c3         1 1TT       0.158500
     10 C24          2.0390     1.7090     5.6730 ca         1 1TT      -0.072000
     11 C30          3.5210    -2.3040     0.8600 c3         1 1TT      -0.128100
     12 N4           1.6160     0.3390     2.6130 n2         1 1TT      -0.701900
     13 N5          -0.5500     0.9350     1.4990 n          1 1TT      -0.474800
     14 C6           0.2440     0.8410     2.7500 c3         1 1TT       0.551100
     15 N7          -0.5070     0.1710     3.8480 n3         1 1TT      -0.753600
     16 N11          3.6540     0.1710     1.3670 nh         1 1TT      -0.690600
     17 O12         -0.5870     0.7110    -0.7870 o          1 1TT      -0.625500
     18 F14          0.2530    -2.3690     2.1660 f          1 1TT      -0.241633
     19 F15          0.2240    -2.7280     4.3090 f          1 1TT      -0.241633
     20 F16         -1.4310    -3.3860     3.0790 f          1 1TT      -0.241633
     21 C17          4.3940     0.1310     2.6250 c3         1 1TT       0.143800
     22 C18          5.9070     0.0470     2.3880 c3         1 1TT       0.122400
     23 O19          6.2420    -1.0420     1.5370 os         1 1TT      -0.408600
     24 C23          0.6780     1.3890     5.6370 ca         1 1TT      -0.199600
     25 C25          2.4210     2.9340     6.2320 ca         1 1TT      -0.112900
     26 C26          1.4240     3.8000     6.7300 ca         1 1TT       0.408200
     27 N27          0.1130     3.5020     6.6910 nb         1 1TT      -0.656000
     28 C28         -0.2460     2.3210     6.1540 ca         1 1TT       0.411200
     29 Cl1          4.0520     3.3780     6.3100 cl         1 1TT      -0.074400
     30 H1           1.9110     0.3060    -0.7000 hc         1 1TT       0.105700
     31 H2           1.8790     1.9670     0.0270 hc         1 1TT       0.105700
     32 H3          -1.9760    -1.1790     4.4080 h1         1 1TT       0.087700
     33 H4          -2.1280    -1.5270     1.5520 hc         1 1TT       0.071200
     34 H5          -3.3090    -0.7000     2.6440 hc         1 1TT       0.071200
     35 H6          -2.4230     1.4740     2.2310 h1         1 1TT       0.078200
     36 H7          -2.4320     0.6520     0.5980 h1         1 1TT       0.078200
     37 H8           5.9210    -0.0810    -0.2860 h1         1 1TT       0.058200
     38 H9           5.8550    -1.9210    -0.2380 h1         1 1TT       0.058200
     39 H10          3.6040    -0.6680    -0.5580 h1         1 1TT       0.061700
     40 H11         -0.5020    -0.3810     5.8610 h1         1 1TT       0.062700
     41 H12          1.0980    -0.6340     5.0330 h1         1 1TT       0.062700
     42 H14          3.7150    -3.0230     0.0290 hc         1 1TT       0.052700
     43 H15          4.0540    -2.6630     1.7730 hc         1 1TT       0.052700
     44 H16          2.4230    -2.2860     1.0690 hc         1 1TT       0.052700
     45 H17          0.3460     1.9210     3.1260 h3         1 1TT       0.094700
     46 H19          4.1740     1.0750     3.1960 h1         1 1TT       0.058200
     47 H20          4.0830    -0.7480     3.2610 h1         1 1TT       0.058200
     48 H21          6.4330    -0.1780     3.3530 h1         1 1TT       0.057700
     49 H22          6.2970     1.0030     1.9490 h1         1 1TT       0.057700
     50 H23          1.6890     4.7750     7.1800 h4         1 1TT       0.038100
     51 H24         -1.3300     2.1080     6.1340 h4         1 1TT       0.032100
     52 C22          0.2140     0.0670     5.1080 c3         1 1TT       0.244100
     53 H13          2.7880     1.0130     5.2610 ha         1 1TT       0.163000
@<TRIPOS>BOND
     1     1     2 1   
     2     1    13 1   
     3     1    17 2   
     4     2     3 1   
     5     2    30 1   
     6     2    31 1   
     7     3    12 2   
     8     3    16 1   
     9     4     5 1   
    10     4     7 1   
    11     4    15 1   
    12     4    32 1   
    13     5     6 1   
    14     5    33 1   
    15     5    34 1   
    16     6    13 1   
    17     6    35 1   
    18     6    36 1   
    19     7    18 1   
    20     7    19 1   
    21     7    20 1   
    22     8     9 1   
    23     8    23 1   
    24     8    37 1   
    25     8    38 1   
    26     9    11 1   
    27     9    16 1   
    28     9    39 1   
    29    10    24 ar  
    30    10    25 ar  
    31    10    53 1   
    32    11    42 1   
    33    11    43 1   
    34    11    44 1   
    35    12    14 1   
    36    13    14 1   
    37    14    15 1   
    38    14    45 1   
    39    15    52 1   
    40    16    21 1   
    41    21    22 1   
    42    21    46 1   
    43    21    47 1   
    44    22    23 1   
    45    22    48 1   
    46    22    49 1   
    47    24    28 ar  
    48    24    52 1   
    49    25    26 ar  
    50    25    29 1   
    51    26    27 ar  
    52    26    50 1   
    53    27    28 ar  
    54    28    51 1   
    55    40    52 1   
    56    41    52 1   
@<TRIPOS>SUBSTRUCTURE
     1 1TT         1 TEMP              0 ****  ****    0 ROOT
