@<TRIPOS>MOLECULE
1TU
   30    30     1     0     0
SMALL
bcc


@<TRIPOS>ATOM
      1 C1          1.2080    1.0030    1.2320 c2        1 1TU     -0.148000
      2 C2          1.0390    0.2990    0.0930 c2        1 1TU     -0.050000
      3 C3          1.8370   -1.2400    1.6730 c1        1 1TU      0.159000
      4 C4          1.0950   -1.2370    2.8130 c2        1 1TU     -0.210000
      5 C5          0.1860   -0.1220    3.1230 c2        1 1TU      0.018000
      6 C6          0.2260    0.9880    2.3280 c2        1 1TU      0.007000
      7 C10         2.0350    0.2820   -1.0130 c3        1 1TU     -0.067000
      8 C11         2.1530    1.5900   -1.6930 c2        1 1TU     -0.119000
      9 C13         2.6390    3.7110   -2.0680 c2        1 1TU     -0.027000
     10 C15         1.7790    1.8680   -3.0260 c2        1 1TU     -0.006000
     11 N14         2.0780    3.2210   -3.2670 na        1 1TU     -0.170000
     12 C16         1.9460    3.9190   -4.5000 c3        1 1TU     -0.076000
     13 C17         3.1000    5.1140   -1.9180 c3        1 1TU     -0.148000
     14 N12         2.6820    2.7450   -1.1130 n2        1 1TU     -0.134000
     15 F8         -0.5540    2.0710    2.5160 f         1 1TU     -0.076000
     16 O9         -0.6970   -0.2010    4.1670 oh        1 1TU     -0.228000
     17 F7          1.1470   -2.2380    3.7350 f         1 1TU     -0.093000
     18 H1          2.0880    1.6510    1.3930 ha        1 1TU      0.178000
     19 H2          0.1200   -0.2880   -0.0830 ha        1 1TU      0.135000
     20 H3          3.0390   -0.0210   -0.5980 hc        1 1TU      0.119000
     21 H4          1.7410   -0.4890   -1.7770 hc        1 1TU      0.119000
     22 H6          2.9470    4.3100   -4.8320 h1        1 1TU      0.097000
     23 H7          1.2440    4.7870   -4.3750 h1        1 1TU      0.097000
     24 H8          1.5450    3.2190   -5.2810 h1        1 1TU      0.097000
     25 H9          3.9030    5.3350   -2.6660 hc        1 1TU      0.099333
     26 H10         3.5080    5.2800   -0.8900 hc        1 1TU      0.099333
     27 H11         2.2480    5.8190   -2.0870 hc        1 1TU      0.099333
     28 H12        -0.4660   -0.9870    4.6900 ho        1 1TU      0.233000
     29 H5          0.3350    1.0380   -3.9080 ho        1 1TU      0.217000
     30 O18         1.3030    1.0370   -4.0000 oh        1 1TU     -0.224000
@<TRIPOS>BOND
     1    1    2 1   
     2    1    6 1   
     3    1   18 1   
     4    2    7 1   
     5    2   19 1   
     6    3    4 1   
     7    4    5 1   
     8    4   17 1   
     9    5    6 1   
    10    5   16 1   
    11    6   15 1   
    12    7    8 1   
    13    7   20 1   
    14    7   21 1   
    15    8   10 1   
    16    8   14 1   
    17    9   11 1   
    18    9   13 1   
    19    9   14 1   
    20   10   11 1   
    21   10   30 1   
    22   11   12 1   
    23   12   22 1   
    24   12   23 1   
    25   12   24 1   
    26   13   25 1   
    27   13   26 1   
    28   13   27 1   
    29   16   28 1   
    30   29   30 1   
@<TRIPOS>SUBSTRUCTURE
     1 1TU         1 TEMP              0 ****  ****    0 ROOT
