@<TRIPOS>MOLECULE
1TU
   30    31     1     0     0
SMALL
bcc


@<TRIPOS>ATOM
      1 C1           1.3820     0.7190     0.6190 ca         1 1TU      -0.136000
      2 C2           1.3850    -0.2770    -0.3610 ca         1 1TU      -0.063300
      3 C3           0.8980    -1.5530    -0.0700 ca         1 1TU      -0.136000
      4 C4           0.4040    -1.8530     1.2100 ca         1 1TU       0.089400
      5 C5           0.3990    -0.8540     2.2090 ca         1 1TU       0.056100
      6 C6           0.8920     0.4340     1.9010 ca         1 1TU       0.089400
      7 C10          1.8880     0.0310    -1.7330 c3         1 1TU      -0.051400
      8 C11          3.3420     0.3100    -1.7560 cc         1 1TU       0.304600
      9 C13          5.2670     1.3710    -1.5520 cd         1 1TU       0.414800
     10 C15          4.3490    -0.5750    -2.2010 cd         1 1TU      -0.049500
     11 N14          5.5790     0.0920    -2.0600 na         1 1TU      -0.213900
     12 C16          6.8580    -0.3800    -2.4690 c3         1 1TU       0.022600
     13 C17          6.3070     2.3950    -1.2770 c3         1 1TU      -0.124400
     14 N12          3.9300     1.5110    -1.3550 nc         1 1TU      -0.660000
     15 F8           0.8820     1.3880     2.8660 f          1 1TU      -0.132400
     16 O9          -0.0920    -1.1940     3.4450 oh         1 1TU      -0.476100
     17 F7          -0.0640    -3.0920     1.4840 f          1 1TU      -0.132400
     18 H1           1.7700     1.7260     0.3950 ha         1 1TU       0.163500
     19 H2           0.8910    -2.3400    -0.8390 ha         1 1TU       0.163500
     20 H3           1.3280     0.9210    -2.1340 hc         1 1TU       0.069700
     21 H4           1.6870    -0.8360    -2.4220 hc         1 1TU       0.069700
     22 H6           7.2890     0.2970    -3.2560 h1         1 1TU       0.057367
     23 H7           7.5560    -0.3990    -1.5880 h1         1 1TU       0.057367
     24 H8           6.7540    -1.4160    -2.8890 h1         1 1TU       0.057367
     25 H9           5.8350     3.3310    -0.8870 hc         1 1TU       0.059367
     26 H10          7.0310     2.0110    -0.5160 hc         1 1TU       0.059367
     27 H11          6.8650     2.6350    -2.2160 hc         1 1TU       0.059367
     28 H12         -0.0370    -0.4080     4.0120 ho         1 1TU       0.432000
     29 H5           4.1910    -2.4420    -2.0120 ho         1 1TU       0.420000
     30 O18          4.2540    -1.8190    -2.7570 oh         1 1TU      -0.472100
@<TRIPOS>BOND
     1     1     2 ar  
     2     1     6 ar  
     3     1    18 1   
     4     2     3 ar  
     5     2     7 1   
     6     3     4 ar  
     7     3    19 1   
     8     4     5 ar  
     9     4    17 1   
    10     5     6 ar  
    11     5    16 1   
    12     6    15 1   
    13     7     8 1   
    14     7    20 1   
    15     7    21 1   
    16     8    10 2   
    17     8    14 1   
    18     9    11 1   
    19     9    13 1   
    20     9    14 2   
    21    10    11 1   
    22    10    30 1   
    23    11    12 1   
    24    12    22 1   
    25    12    23 1   
    26    12    24 1   
    27    13    25 1   
    28    13    26 1   
    29    13    27 1   
    30    16    28 1   
    31    29    30 1   
@<TRIPOS>SUBSTRUCTURE
     1 1TU         1 TEMP              0 ****  ****    0 ROOT
