@<TRIPOS>MOLECULE
molecule
   30    31     1     0     0
SMALL
bcc


@<TRIPOS>ATOM
      1 C1           0.0000     0.0000     0.0000 ca         1 1TU      -0.162000
      2 C2           1.3820     0.0000     0.0000 ca         1 1TU      -0.034300
      3 C3           2.0760     0.0000     1.1960 ca         1 1TU      -0.162000
      4 C4           1.3900     0.0010     2.3970 ca         1 1TU       0.133400
      5 C5           0.0010     0.0000     2.4000 ca         1 1TU       0.023100
      6 C6          -0.6930    -0.0010     1.1980 ca         1 1TU       0.133400
      7 C10          2.1350    -0.0000    -1.3070 c3         1 1TU      -0.038400
      8 C11          2.3850     1.4210    -1.7420 cc         1 1TU       0.316600
      9 C13          3.3440     3.3410    -1.9770 cd         1 1TU       0.417800
     10 C15          1.5650     2.1700    -2.5130 cd         1 1TU      -0.047500
     11 N14          2.1710     3.3890    -2.6650 na         1 1TU      -0.209900
     12 C16          1.6520     4.5300    -3.4240 c3         1 1TU       0.029600
     13 C17          4.3420     4.4640    -1.8630 c3         1 1TU      -0.105400
     14 N12          3.4570     2.1640    -1.4270 nc         1 1TU      -0.683000
     15 F8          -2.0450    -0.0010     1.1970 f          1 1TU      -0.127900
     16 O9          -0.6780     0.0000     3.5780 oh         1 1TU      -0.497100
     17 F7           2.0690    -0.0000     3.5650 f          1 1TU      -0.127900
     18 H1          -0.5410    -0.0000    -0.9380 ha         1 1TU       0.159000
     19 H2           3.1600     0.0000     1.1920 ha         1 1TU       0.159000
     20 H3           3.0810    -0.5110    -1.1780 hc         1 1TU       0.064200
     21 H4           1.5480    -0.5110    -2.0610 hc         1 1TU       0.064200
     22 H6           2.2690     4.6910    -4.2990 h1         1 1TU       0.056033
     23 H7           1.6710     5.4160    -2.8010 h1         1 1TU       0.056033
     24 H8           0.6340     4.3260    -3.7320 h1         1 1TU       0.056033
     25 H9           3.8780     5.3100    -1.3690 hc         1 1TU       0.056367
     26 H10          4.6700     4.7590    -2.8520 hc         1 1TU       0.056367
     27 H11          5.1950     4.1320    -1.2840 hc         1 1TU       0.056367
     28 H12         -0.8350    -0.8880     3.8510 ho         1 1TU       0.420000
     29 H5           0.4860     1.5490    -3.9410 ho         1 1TU       0.413000
     30 O18          0.3710     1.7870    -3.0360 oh         1 1TU      -0.475100
@<TRIPOS>BOND
     1    30    10 1   
     2    12    11 1   
     3    10    11 1   
     4    10     8 2   
     5    11     9 1   
     6     7     8 1   
     7     7     2 1   
     8     8    14 1   
     9     9    14 2   
    10     9    13 1   
    11     1     2 ar  
    12     1     6 ar  
    13     2     3 ar  
    14    15     6 1   
    15     6     5 ar  
    16     3     4 ar  
    17     5     4 ar  
    18     5    16 1   
    19     4    17 1   
    20     1    18 1   
    21     3    19 1   
    22     7    20 1   
    23     7    21 1   
    24    12    22 1   
    25    12    23 1   
    26    12    24 1   
    27    13    25 1   
    28    13    26 1   
    29    13    27 1   
    30    16    28 1   
    31    30    29 1   
@<TRIPOS>SUBSTRUCTURE
     1 1TU         1 TEMP              0 ****  ****    0 ROOT
