@<TRIPOS>MOLECULE
molecule
   51    53     1     0     0
SMALL
bcc


@<TRIPOS>ATOM
      1 C18          0.0000     0.0000     0.0000 ce         1 1TZ       0.458800
      2 C01          1.4750     0.0000     0.0000 ca         1 1TZ      -0.178900
      3 C02          2.1760     0.0000     1.2080 ca         1 1TZ      -0.028800
      4 C03          1.4270    -0.0010     2.5160 c3         1 1TZ      -0.050300
      5 C04          3.5550     0.0010     1.2010 ca         1 1TZ      -0.142000
      6 C05          4.2440     0.0010     0.0020 ca         1 1TZ      -0.034300
      7 C06          5.7520     0.0010     0.0020 c3         1 1TZ      -0.055800
      8 C07          3.5570     0.0010    -1.1980 ca         1 1TZ      -0.142000
      9 C08          2.1780    -0.0050    -1.2070 ca         1 1TZ      -0.028800
     10 C09          1.4300    -0.0050    -2.5160 c3         1 1TZ      -0.050300
     11 N24         -0.6480    -0.1140    -1.1190 n2         1 1TZ      -0.449300
     12 N01         -2.0500    -0.1200    -1.1190 ns         1 1TZ      -0.328900
     13 C23         -2.7220    -0.2380    -2.2800 c          1 1TZ       0.655100
     14 O23         -2.1150    -0.3390    -3.3250 o          1 1TZ      -0.562100
     15 C11         -4.2290    -0.2450    -2.2800 c3         1 1TZ       0.026500
     16 N22         -4.7200     0.0950    -3.6220 nz         1 1TZ      -0.792600
     17 C10         -4.7330    -1.6360    -1.8910 c3         1 1TZ      -0.006200
     18 C12         -6.2350    -1.6120    -1.7720 cc         1 1TZ      -0.255400
     19 C2          -6.9440    -1.4300    -0.6460 cd         1 1TZ      -0.041100
     20 N23         -8.2820    -1.4690    -0.9260 na         1 1TZ      -0.160400
     21 C13         -8.4730    -1.6830    -2.2730 ca         1 1TZ      -0.029200
     22 C14         -9.6040    -1.8050    -3.0720 ca         1 1TZ      -0.114000
     23 C15         -9.4660    -2.0200    -4.4260 ca         1 1TZ      -0.095000
     24 C16         -8.2070    -2.1170    -5.0030 ca         1 1TZ      -0.117000
     25 C17         -7.0820    -2.0000    -4.2350 ca         1 1TZ      -0.138000
     26 C           -7.1980    -1.7750    -2.8630 ca         1 1TZ      -0.129800
     27 H1          -0.5420     0.0900     0.9330 h4         1 1TZ      -0.006200
     28 H2           0.8030     0.8830     2.5760 hc         1 1TZ       0.051533
     29 H3           2.1340     0.0000     3.3370 hc         1 1TZ       0.051533
     30 H4           0.8060    -0.8860     2.5760 hc         1 1TZ       0.051533
     31 H5           4.1000     0.0010     2.1370 ha         1 1TZ       0.144500
     32 H6           6.1130    -0.8230    -0.6010 hc         1 1TZ       0.053033
     33 H7           6.1130    -0.1100     1.0180 hc         1 1TZ       0.053033
     34 H8           6.1130     0.9350    -0.4090 hc         1 1TZ       0.053033
     35 H9           4.1030    -0.0010    -2.1340 ha         1 1TZ       0.144500
     36 H10          0.7700     0.8530    -2.5550 hc         1 1TZ       0.051533
     37 H11          2.1360     0.0450    -3.3360 hc         1 1TZ       0.051533
     38 H12          0.8460    -0.9140    -2.5980 hc         1 1TZ       0.051533
     39 H13         -2.5500    -0.0010    -0.2600 hn         1 1TZ       0.297500
     40 H14         -4.5940     0.4840    -1.5670 hx         1 1TZ       0.114700
     41 H15         -4.2290     0.8970    -3.9640 hn         1 1TZ       0.464800
     42 H16         -4.5680    -0.6780    -4.2400 hn         1 1TZ       0.464800
     43 H18         -4.3000    -1.9240    -0.9410 hc         1 1TZ       0.091200
     44 H19         -4.4430    -2.3510    -2.6510 hc         1 1TZ       0.091200
     45 H20         -6.5180    -1.2750     0.3380 h4         1 1TZ       0.177000
     46 H21         -9.0140    -1.3590    -0.2520 hn         1 1TZ       0.319700
     47 H22        -10.5910    -1.7320    -2.6320 ha         1 1TZ       0.148000
     48 H23        -10.3490    -2.1150    -5.0470 ha         1 1TZ       0.155000
     49 H24         -8.1150    -2.2860    -6.0690 ha         1 1TZ       0.148000
     50 H25         -6.1020    -2.0760    -4.6920 ha         1 1TZ       0.105000
     51 H223        -5.7090     0.2500    -3.5870 hn         1 1TZ       0.464800
@<TRIPOS>BOND
     1    10     9 1
     2     8     9 ar
     3     8     6 ar
     4     9     2 ar
     5     7     6 1
     6     6     5 ar
     7     2     1 1
     8     2     3 ar
     9     1    11 2
    10     5     3 ar
    11     3     4 1
    12    11    12 1
    13    12    13 1
    14    16    15 1
    15    15    13 1
    16    15    17 1
    17    13    14 2
    18    24    25 ar
    19    24    23 ar
    20    25    26 ar
    21    23    22 ar
    22    26    18 1
    23    26    21 ar
    24    17    18 1
    25    18    19 2
    26    22    21 ar
    27    21    20 1
    28    19    20 1
    29     1    27 1
    30     4    28 1
    31     4    29 1
    32     4    30 1
    33     5    31 1
    34     7    32 1
    35     7    33 1
    36     7    34 1
    37     8    35 1
    38    10    36 1
    39    10    37 1
    40    10    38 1
    41    12    39 1
    42    15    40 1
    43    16    41 1
    44    16    42 1
    45    17    43 1
    46    17    44 1
    47    19    45 1
    48    20    46 1
    49    22    47 1
    50    23    48 1
    51    24    49 1
    52    25    50 1
    53    51    16 1
@<TRIPOS>SUBSTRUCTURE
     1 1TZ         1 TEMP              0 ****  ****    0 ROOT
