@<TRIPOS>MOLECULE
1TZ
   52    54     1     0     0
SMALL
bcc


@<TRIPOS>ATOM
      1 C18          0.0960     0.5700    -0.5770 ce         1 1TZ       0.586800
      2 C01          1.5010     0.4290    -0.3080 ca         1 1TZ      -0.247900
      3 C02          2.3160     1.4610     0.2280 ca         1 1TZ       0.027200
      4 C03          1.8000     2.8070     0.5740 c3         1 1TZ      -0.078800
      5 C04          3.6760     1.2250     0.4440 ca         1 1TZ      -0.164000
      6 C05          4.2610    -0.0080     0.1430 ca         1 1TZ       0.054700
      7 C06          5.7040    -0.2380     0.3630 c3         1 1TZ      -0.089800
      8 C07          3.4550    -1.0290    -0.3870 ca         1 1TZ      -0.164000
      9 C08          2.1000    -0.8310    -0.6160 ca         1 1TZ       0.027200
     10 C09          1.3170    -1.9600    -1.1800 c3         1 1TZ      -0.078800
     11 N24         -0.6310     1.6370    -0.2830 n2         1 1TZ      -0.604400
     12 N01         -1.9810     1.7290    -0.6360 ny         1 1TZ      -0.330900
     13 C23         -2.9530     0.7850     0.0100 c          1 1TZ       0.496100
     14 O23         -2.6510    -0.3940     0.1720 o          1 1TZ      -0.431100
     15 C11         -4.3070     1.3680     0.4270 c3         1 1TZ       0.033500
     16 N22         -5.1690     0.3000     1.0410 nz         1 1TZ      -0.837600
     17 C10         -4.1560     2.5740     1.3870 c3         1 1TZ       0.003800
     18 C12         -3.6230     3.7410     0.6860 cc         1 1TZ      -0.334400
     19 C2          -2.5940     4.5740     1.1890 cd         1 1TZ      -0.013100
     20 N23         -2.4710     5.6980     0.4080 na         1 1TZ      -0.140400
     21 C13         -3.4510     5.6570    -0.6010 ca         1 1TZ      -0.062200
     22 C14         -3.7410     6.5810    -1.6190 ca         1 1TZ      -0.096000
     23 C15         -4.7970     6.2870    -2.4670 ca         1 1TZ      -0.094000
     24 C16         -5.5570     5.1110    -2.3140 ca         1 1TZ      -0.093000
     25 C17         -5.2740     4.1910    -1.3150 ca         1 1TZ      -0.144000
     26 C           -4.2070     4.4380    -0.4470 ca         1 1TZ      -0.100800
     27 H1          -0.3760    -0.3220    -1.0660 h4         1 1TZ       0.025800
     28 H2           1.0280     2.7380     1.3800 hc         1 1TZ       0.062367
     29 H3           1.3560     3.3040    -0.3250 hc         1 1TZ       0.062367
     30 H4           2.6230     3.4670     0.9510 hc         1 1TZ       0.062367
     31 H5           4.3070     2.0300     0.8600 ha         1 1TZ       0.166500
     32 H6           6.1300     0.4980     1.0890 hc         1 1TZ       0.077700
     33 H7           5.8880    -1.2720     0.7510 hc         1 1TZ       0.077700
     34 H8           6.2540    -0.1300    -0.6090 hc         1 1TZ       0.077700
     35 H9           3.9160    -2.0040    -0.6240 ha         1 1TZ       0.166500
     36 H10          1.9630    -2.8660    -1.3170 hc         1 1TZ       0.062367
     37 H11          0.9010    -1.6930    -2.1840 hc         1 1TZ       0.062367
     38 H12          0.4790    -2.2470    -0.4960 hc         1 1TZ       0.062367
     39 H13         -2.1230     1.6450    -1.6590 hn         1 1TZ       0.487800
     40 H14         -4.8370     1.7290    -0.5150 hx         1 1TZ       0.158700
     41 H15         -6.1170     0.6730     1.1820 hn         1 1TZ       0.482467
     42 H16         -5.2100    -0.5270     0.4320 hn         1 1TZ       0.482467
     43 H18         -5.1760     2.8290     1.7980 hc         1 1TZ       0.091700
     44 H19         -3.4950     2.2910     2.2510 hc         1 1TZ       0.091700
     45 H20         -1.9530     4.4130     2.0650 h4         1 1TZ       0.195000
     46 H21         -1.8610     6.4630     0.5740 hn         1 1TZ       0.337700
     47 H22         -3.1610     7.5100    -1.7300 ha         1 1TZ       0.170000
     48 H23         -5.0600     6.9940    -3.2730 ha         1 1TZ       0.173000
     49 H24         -6.4040     4.9340    -2.9980 ha         1 1TZ       0.162000
     50 H25         -5.9130     3.3070    -1.1930 ha         1 1TZ       0.109000
     51 H223        -4.7840     0.0160     1.9510 hn         1 1TZ       0.482467
     52 H012        -2.2370     2.7170    -0.3420 hn         1 1TZ       0.487800
@<TRIPOS>BOND
     1     1     2 1   
     2     1    11 2   
     3     1    27 1   
     4     2     3 ar  
     5     2     9 ar  
     6     3     4 1   
     7     3     5 ar  
     8     4    28 1   
     9     4    29 1   
    10     4    30 1   
    11     5     6 ar  
    12     5    31 1   
    13     6     7 1   
    14     6     8 ar  
    15     7    32 1   
    16     7    33 1   
    17     7    34 1   
    18     8     9 ar  
    19     8    35 1   
    20     9    10 1   
    21    10    36 1   
    22    10    37 1   
    23    10    38 1   
    24    11    12 1   
    25    12    13 1   
    26    12    39 1   
    27    12    52 1   
    28    13    14 2   
    29    13    15 1   
    30    15    16 1   
    31    15    17 1   
    32    15    40 1   
    33    16    41 1   
    34    16    42 1   
    35    16    51 1   
    36    17    18 1   
    37    17    43 1   
    38    17    44 1   
    39    18    19 2   
    40    18    26 1   
    41    19    20 1   
    42    19    45 1   
    43    20    21 1   
    44    20    46 1   
    45    21    22 ar  
    46    21    26 ar  
    47    22    23 ar  
    48    22    47 1   
    49    23    24 ar  
    50    23    48 1   
    51    24    25 ar  
    52    24    49 1   
    53    25    26 ar  
    54    25    50 1   
@<TRIPOS>SUBSTRUCTURE
     1 1TZ         1 TEMP              0 ****  ****    0 ROOT
