@<TRIPOS>MOLECULE
1TZ
   51    54     1     0     0
SMALL
bcc


@<TRIPOS>ATOM
      1 C18          0.0000     0.0000     0.0000 c2         1 1TZ      -0.412000
      2 C01          1.4750     0.0000     0.0000 c3         1 1TZ      -0.172000
      3 C02          2.1760     0.0000     1.2080 c2         1 1TZ       0.015000
      4 C03          1.4270    -0.0010     2.5160 c3         1 1TZ      -0.080000
      5 C04          3.5550     0.0010     1.2010 c2         1 1TZ      -0.144000
      6 C05          4.2440     0.0010     0.0020 c2         1 1TZ       0.018000
      7 C06          5.7520     0.0010     0.0020 c3         1 1TZ      -0.078000
      8 C07          3.5570     0.0010    -1.1980 c2         1 1TZ      -0.144000
      9 C08          2.1780    -0.0050    -1.2070 c2         1 1TZ       0.015000
     10 C09          1.4300    -0.0050    -2.5160 c3         1 1TZ      -0.080000
     11 N24         -0.6480    -0.1140    -1.1190 n2         1 1TZ      -0.068000
     12 N01         -2.0500    -0.1200    -1.1190 ns         1 1TZ       0.142000
     13 C23         -2.7220    -0.2380    -2.2800 c2         1 1TZ       0.196000
     14 O23         -2.1150    -0.3390    -3.3250 o          1 1TZ      -0.382000
     15 C11         -4.2290    -0.2450    -2.2800 c3         1 1TZ      -0.306000
     16 N22         -4.7200     0.0950    -3.6220 nz         1 1TZ       0.855000
     17 C10         -4.7330    -1.6360    -1.8910 c3         1 1TZ       0.005000
     18 C12         -6.2350    -1.6120    -1.7720 c2         1 1TZ      -0.280000
     19 C2          -6.9440    -1.4300    -0.6460 c2         1 1TZ      -0.176000
     20 N23         -8.2820    -1.4690    -0.9260 na         1 1TZ       0.371000
     21 C13         -8.4730    -1.6830    -2.2730 ca         1 1TZ      -0.176000
     22 C14         -9.6040    -1.8050    -3.0720 ca         1 1TZ      -0.066000
     23 C15         -9.4660    -2.0200    -4.4260 ca         1 1TZ      -0.072000
     24 C16         -8.2070    -2.1170    -5.0030 ca         1 1TZ      -0.080000
     25 C17         -7.0820    -2.0000    -4.2350 ca         1 1TZ      -0.114000
     26 C           -7.1980    -1.7750    -2.8630 ca         1 1TZ      -0.107000
     27 H1           0.6100     0.8550    -0.2660 DU         1 1TZ       0.355000
     28 H2           0.7710    -0.8620     2.5570 hc         1 1TZ       0.064833
     29 H3           0.8380     0.9050     2.5960 hc         1 1TZ       0.064833
     30 H4           2.1330    -0.0460     3.3370 hc         1 1TZ       0.064833
     31 H5           4.1000     0.0010     2.1370 ha         1 1TZ       0.128000
     32 H6           6.1130    -1.0030     0.1950 hc         1 1TZ       0.060667
     33 H7           6.1130     0.6690     0.7750 hc         1 1TZ       0.060667
     34 H8           6.1130     0.3350    -0.9620 hc         1 1TZ       0.060667
     35 H9           4.1030    -0.0010    -2.1340 ha         1 1TZ       0.128000
     36 H10          0.7970     0.8720    -2.5700 hc         1 1TZ       0.064833
     37 H11          0.8170    -0.8970    -2.5810 hc         1 1TZ       0.064833
     38 H12          2.1370     0.0080    -3.3360 hc         1 1TZ       0.064833
     39 H13         -2.5500     0.0050    -0.2610 hn         1 1TZ       0.077000
     40 H14         -4.5940     0.4840    -1.5670 hx         1 1TZ       0.129000
     41 H15         -5.6990     0.2990    -3.5780 hn         1 1TZ       0.028000
     42 H16         -4.5680    -0.6780    -4.2400 hn         1 1TZ       0.028000
     43 H18         -4.3000    -1.9240    -0.9410 hc         1 1TZ       0.091500
     44 H19         -4.4430    -2.3510    -2.6510 hc         1 1TZ       0.091500
     45 H20         -6.5180    -1.2740     0.3380 h4         1 1TZ       0.150000
     46 H21         -9.0140    -1.3590    -0.2520 hn         1 1TZ       0.082000
     47 H22        -10.5910    -1.7320    -2.6320 ha         1 1TZ       0.116000
     48 H23        -10.3490    -2.1150    -5.0470 ha         1 1TZ       0.120000
     49 H24         -8.1150    -2.2860    -6.0690 ha         1 1TZ       0.115000
     50 H25         -6.1020    -2.0760    -4.6920 ha         1 1TZ       0.083000
     51 H223        -4.2640     0.9260    -3.9440 hn         1 1TZ       0.028000
@<TRIPOS>BOND
     1     1     2 1   
     2     1    11 1   
     3     1    27 1   
     4     2     3 1   
     5     2     9 1   
     6     2    27 1   
     7     3     4 1   
     8     3     5 1   
     9     4    28 1   
    10     4    29 1   
    11     4    30 1   
    12     5     6 1   
    13     5    31 1   
    14     6     7 1   
    15     6     8 1   
    16     7    32 1   
    17     7    33 1   
    18     7    34 1   
    19     8     9 1   
    20     8    35 1   
    21     9    10 1   
    22    10    36 1   
    23    10    37 1   
    24    10    38 1   
    25    11    12 1   
    26    12    13 1   
    27    12    39 1   
    28    13    14 1   
    29    13    15 1   
    30    15    16 1   
    31    15    17 1   
    32    15    40 1   
    33    16    41 1   
    34    16    42 1   
    35    16    51 1   
    36    17    18 1   
    37    17    43 1   
    38    17    44 1   
    39    18    19 1   
    40    18    26 1   
    41    19    20 1   
    42    19    45 1   
    43    20    21 1   
    44    20    46 1   
    45    21    22 1   
    46    21    26 1   
    47    22    23 1   
    48    22    47 1   
    49    23    24 1   
    50    23    48 1   
    51    24    25 1   
    52    24    49 1   
    53    25    26 1   
    54    25    50 1   
@<TRIPOS>SUBSTRUCTURE
     1 1TZ         1 TEMP              0 ****  ****    0 ROOT
