@<TRIPOS>MOLECULE
1U0
   50    52     1     0     0
SMALL
bcc


@<TRIPOS>ATOM
      1 O3B          1.1670     1.7550    -3.8140 o          1 1U0      -0.907000
      2 PB           2.3180     1.1980    -3.0690 p5         1 1U0       1.654800
      3 O1B          3.2080     2.0970    -2.2970 o          1 1U0      -0.907000
      4 O2B          3.2530     0.3500    -4.0990 os         1 1U0      -0.704200
      5 O3A          1.8160    -0.0250    -2.0780 os         1 1U0      -0.831800
      6 PA           1.3240    -1.1930    -1.0790 p5         1 1U0       1.594800
      7 O1A          2.4620    -1.7100    -0.2800 o          1 1U0      -0.899000
      8 O2A          0.0330    -0.8740    -0.4270 o          1 1U0      -0.899000
      9 O7           0.9950    -2.3990    -2.1790 os         1 1U0      -0.598200
     10 C7           2.0780    -2.8650    -2.9190 c3         1 1U0       0.206400
     11 C6           1.8240    -2.7170    -4.4240 c3         1 1U0       0.025800
     12 C5           2.9940    -2.2270    -5.1670 c2         1 1U0      -0.357500
     13 C4           3.2740    -2.5850    -6.5160 ce         1 1U0      -0.085200
     14 CM4          2.4730    -3.5710    -7.2590 c3         1 1U0       0.000100
     15 S1           4.0310    -1.0890    -4.6520 s4         1 1U0       0.455400
     16 C2           4.8680    -0.9350    -6.0540 c2         1 1U0      -0.415500
     17 C8           5.9210     0.0420    -6.3280 c3         1 1U0       0.250300
     18 O9           7.1820    -0.4760    -5.8440 oh         1 1U0      -0.642800
     19 C3           4.3460    -1.8570    -7.0350 ce         1 1U0      -0.209200
     20 C7'          4.7970    -1.9420    -8.4380 c3         1 1U0       0.074100
     21 C5'          5.4120    -3.2440    -8.8240 ca         1 1U0      -0.293900
     22 C6'          4.9740    -3.9460    -9.9460 ca         1 1U0       0.399200
     23 N1'          5.4940    -5.1290   -10.3630 nb         1 1U0      -0.783000
     24 C2'          6.4910    -5.6380    -9.5880 ca         1 1U0       0.633300
     25 CM2          7.0760    -6.9730    -9.9920 c3         1 1U0      -0.117400
     26 N3'          7.0140    -5.0710    -8.4610 nb         1 1U0      -0.817000
     27 C4'          6.4950    -3.8540    -8.0720 ca         1 1U0       0.694200
     28 N4'          7.0700    -3.1800    -7.0210 nv         1 1U0      -0.921500
     29 C9           5.6770     1.4160    -5.6770 c3         1 1U0       0.105400
     30 O10          4.6760     2.1280    -6.3750 oh         1 1U0      -0.638800
     31 H4           2.2240    -3.9620    -2.6840 h1         1 1U0      -0.003300
     32 H5           3.0160    -2.3200    -2.6140 h1         1 1U0      -0.003300
     33 H6           0.9560    -2.0170    -4.5700 hc         1 1U0       0.010700
     34 H7           1.5000    -3.7140    -4.8330 hc         1 1U0       0.010700
     35 H8           2.8230    -3.6760    -8.3180 hc         1 1U0       0.000367
     36 H9           2.5350    -4.5770    -6.7720 hc         1 1U0       0.000367
     37 H10          1.3960    -3.2650    -7.2710 hc         1 1U0       0.000367
     38 H11          6.0550     0.2200    -7.4370 h1         1 1U0      -0.014300
     39 H12          7.8320     0.2240    -5.9620 ho         1 1U0       0.349000
     40 H13          3.9240    -1.7510    -9.1260 hc         1 1U0       0.022700
     41 H14          5.5580    -1.1410    -8.6560 hc         1 1U0       0.022700
     42 H15          4.1410    -3.5560   -10.5570 h4         1 1U0       0.004100
     43 H16          6.7750    -7.7470    -9.2460 hc         1 1U0       0.033033
     44 H17          6.7120    -7.2850   -11.0000 hc         1 1U0       0.033033
     45 H18          8.1910    -6.9130   -10.0170 hc         1 1U0       0.033033
     46 H19          6.5390    -2.4150    -6.6230 hn         1 1U0       0.452800
     47 H20          7.6170    -3.7030    -6.3800 hn         1 1U0       0.452800
     48 H21          5.4030     1.2970    -4.5940 h1         1 1U0       0.039200
     49 H22          6.6000     2.0530    -5.7660 h1         1 1U0       0.039200
     50 H23          3.8350     1.7090    -6.1310 ho         1 1U0       0.450000
@<TRIPOS>BOND
     1     1     2 1   
     2     2     3 1   
     3     2     4 1   
     4     2     5 1   
     5     4    15 1   
     6     5     6 1   
     7     6     7 1   
     8     6     8 1   
     9     6     9 1   
    10     9    10 1   
    11    10    11 1   
    12    10    31 1   
    13    10    32 1   
    14    11    12 1   
    15    11    33 1   
    16    11    34 1   
    17    12    13 2   
    18    12    15 1   
    19    13    14 1   
    20    13    19 1   
    21    14    35 1   
    22    14    36 1   
    23    14    37 1   
    24    15    16 1   
    25    16    17 1   
    26    16    19 2   
    27    17    18 1   
    28    17    29 1   
    29    17    38 1   
    30    18    39 1   
    31    19    20 1   
    32    20    21 1   
    33    20    40 1   
    34    20    41 1   
    35    21    22 ar  
    36    21    27 ar  
    37    22    23 ar  
    38    22    42 1   
    39    23    24 ar  
    40    24    25 1   
    41    24    26 ar  
    42    25    43 1   
    43    25    44 1   
    44    25    45 1   
    45    26    27 ar  
    46    27    28 1   
    47    28    46 1   
    48    28    47 1   
    49    29    30 1   
    50    29    48 1   
    51    29    49 1   
    52    30    50 1   
@<TRIPOS>SUBSTRUCTURE
     1 1U0         1 TEMP              0 ****  ****    0 ROOT
