@<TRIPOS>MOLECULE
molecule
   50    51     1     0     0
SMALL
bcc


@<TRIPOS>ATOM
      1 O3B          0.0000     0.0000     0.0000 o          1 1U0      -0.887500
      2 PB           1.6100     0.0000     0.0000 p5         1 1U0       1.308900
      3 O1B          2.1030     0.0000     1.3960 o          1 1U0      -0.887500
      4 O2B          2.1470    -1.3150    -0.7580 o          1 1U0      -0.887500
      5 O3A          2.1460     1.3150    -0.7590 os         1 1U0      -0.713800
      6 PA           3.5740     2.0550    -0.8400 p5         1 1U0       1.418800
      7 O1A          4.2130     2.0440     0.4950 o          1 1U0      -0.854000
      8 O2A          4.5190     1.2860    -1.8930 o          1 1U0      -0.854000
      9 O7           3.3620     3.5760    -1.3200 os         1 1U0      -0.599200
     10 C7           4.4280     4.5260    -1.3920 c3         1 1U0       0.237400
     11 C6           3.8840     5.8680    -1.8840 c3         1 1U0      -0.034100
     12 C5           5.0090     6.8690    -1.9590 cc         1 1U0       0.041600
     13 C4           5.7790     7.0820    -3.0260 cd         1 1U0      -0.152300
     14 CM4          5.6060     6.3220    -4.3160 c3         1 1U0      -0.024800
     15 S1           5.5010     7.9410    -0.6530 ss         1 1U0      -0.126800
     16 C2           6.7670     8.6330    -1.6590 cc         1 1U0      -0.099400
     17 C8           7.7230     9.7160    -1.2290 c3         1 1U0       0.239400
     18 O9           8.2190     9.4220     0.0780 oh         1 1U0      -0.590800
     19 C3           6.7510     8.0550    -2.8600 cd         1 1U0      -0.089300
     20 C7'          7.7180     8.4290    -3.9540 c3         1 1U0       0.051200
     21 C5'          8.9710     7.6020    -3.8210 ca         1 1U0      -0.380900
     22 C6'          9.0570     6.5930    -2.8820 ca         1 1U0       0.484200
     23 N1'         10.1750     5.8860    -2.7930 nb         1 1U0      -0.735000
     24 C2'         11.1980     6.1320    -3.5860 ca         1 1U0       0.628300
     25 CM2         12.4480     5.3000    -3.4470 c3         1 1U0      -0.108400
     26 N3'         11.1590     7.0840    -4.4960 nb         1 1U0      -0.773000
     27 C4'         10.0720     7.8320    -4.6480 ca         1 1U0       0.659200
     28 N4'         10.0340     8.8330    -5.6060 nv         1 1U0      -1.079500
     29 C9           6.9920    11.0600    -1.2060 c3         1 1U0       0.118400
     30 O10          7.9240    12.1030    -0.9130 oh         1 1U0      -0.622800
     31 H4           5.1850     4.1690    -2.0800 h1         1 1U0       0.026700
     32 H5           4.8660     4.6520    -0.4090 h1         1 1U0       0.026700
     33 H6           3.1280     6.2260    -1.1960 hc         1 1U0       0.056700
     34 H7           3.4460     5.7420    -2.8670 hc         1 1U0       0.056700
     35 H8           5.7500     6.9950    -5.1530 hc         1 1U0       0.044367
     36 H9           4.6070     5.9040    -4.3570 hc         1 1U0       0.044367
     37 H10          6.3350     5.5230    -4.3650 hc         1 1U0       0.044367
     38 H11          8.5500     9.7660    -1.9270 h1         1 1U0       0.051700
     39 H12          9.1570     9.5240     0.0890 ho         1 1U0       0.401000
     40 H13          7.2620     8.2420    -4.9190 hc         1 1U0       0.042200
     41 H14          7.9680     9.4800    -3.8710 hc         1 1U0       0.042200
     42 H15          8.2210     6.3830    -2.2250 h4         1 1U0       0.058100
     43 H16         13.2500     5.9160    -3.0590 hc         1 1U0       0.042700
     44 H17         12.7300     4.9090    -4.4170 hc         1 1U0       0.042700
     45 H18         12.2610     4.4780    -2.7660 hc         1 1U0       0.042700
     46 H19         10.4070     9.7380    -5.3980 hn         1 1U0       0.418800
     47 H20          9.6780     8.6370    -6.5200 hn         1 1U0       0.418800
     48 H21          6.2210    11.0400    -0.4450 h1         1 1U0       0.033200
     49 H22          6.5390    11.2420    -2.1730 h1         1 1U0       0.033200
     50 H23          7.4970    12.9400    -1.0000 ho         1 1U0       0.388000
@<TRIPOS>BOND
     1     3     2 1   
     2    18    17 1   
     3     4     2 1   
     4     2     5 1   
     5     2     1 1   
     6     5     6 1   
     7    29    17 1   
     8    29    30 1   
     9    28    27 1   
    10    17    16 1   
    11     7     6 1   
    12    15    16 1   
    13    15    12 1   
    14     6     8 1   
    15     6     9 1   
    16    26    27 ar  
    17    26    24 ar  
    18    16    19 2   
    19    27    21 ar  
    20    10     9 1   
    21    10    11 1   
    22    25    24 1   
    23    24    23 ar  
    24    12    11 1   
    25    12    13 2   
    26    19    20 1   
    27    19    13 1   
    28    21    20 1   
    29    21    22 ar  
    30    13    14 1   
    31    23    22 ar  
    32    10    31 1   
    33    10    32 1   
    34    11    33 1   
    35    11    34 1   
    36    14    35 1   
    37    14    36 1   
    38    14    37 1   
    39    17    38 1   
    40    18    39 1   
    41    20    40 1   
    42    20    41 1   
    43    22    42 1   
    44    25    43 1   
    45    25    44 1   
    46    25    45 1   
    47    28    46 1   
    48    28    47 1   
    49    29    48 1   
    50    29    49 1   
    51    30    50 1   
@<TRIPOS>SUBSTRUCTURE
     1 1U0         1 TEMP              0 ****  ****    0 ROOT
