@<TRIPOS>MOLECULE
molecule
   17    17     1     0     0
SMALL
bcc


@<TRIPOS>ATOM
      1 C01          0.0000     0.0000     0.0000 cc         1 1U1      -0.089000
      2 C02          1.3730     0.0000     0.0000 cc         1 1U1      -0.368500
      3 C03          1.9150     0.0000     1.2560 cd         1 1U1       0.046300
      4 S04          0.6180     0.0000     2.4420 ss         1 1U1       0.131200
      5 C05         -0.5680     0.0010     1.2150 cd         1 1U1      -0.019700
      6 Cl6         -2.2800     0.0090     1.5010 cl         1 1U1      -0.046400
      7 C07          3.3450    -0.0020     1.5630 c          1 1U1       0.877200
      8 O08          3.7590    -0.0020     2.8470 o          1 1U1      -0.788800
      9 O09          4.1620    -0.0030     0.6610 o          1 1U1      -0.788800
     10 S10          2.3410    -0.0010    -1.4720 sy         1 1U1       1.277200
     11 O11          3.3150    -1.0240    -1.3120 o          1 1U1      -0.534300
     12 O12          1.4220     0.0330    -2.5570 o          1 1U1      -0.534300
     13 N13          3.1700     1.4320    -1.5150 nz         1 1U1      -0.796500
     14 H1          -0.5820     0.0000    -0.9140 ha         1 1U1       0.168000
     15 H3           2.9430     1.9230    -2.3570 hn         1 1U1       0.488800
     16 H4           4.1540     1.2490    -1.4910 hn         1 1U1       0.488800
     17 H133         2.9150     1.9890    -0.7240 hn         1 1U1       0.488800
@<TRIPOS>BOND
     1    13    10 1   
     2    11    10 2   
     3    12    10 2   
     4    10     2 1   
     5     9     7 1   
     6     2     3 2   
     7     2     1 1   
     8     7     3 1   
     9     7     8 1   
    10     3     4 1   
    11     1     5 2   
    12     5     4 1   
    13     5     6 1   
    14     1    14 1   
    15    13    15 1   
    16    13    16 1   
    17    17    13 1   
@<TRIPOS>SUBSTRUCTURE
     1 1U1         1 TEMP              0 ****  ****    0 ROOT
