@<TRIPOS>MOLECULE
1U1
   17    17     1     0     0
SMALL
bcc


@<TRIPOS>ATOM
      1 C01         -0.0590    -0.0550    -0.0170 cc         1 1U1      -0.041000
      2 C02          1.3850    -0.0360    -0.0200 cc         1 1U1      -0.595500
      3 C03          1.8640     0.1060     1.2980 cd         1 1U1      -0.055700
      4 S04          0.6690     0.1570     2.3940 ss         1 1U1       0.308200
      5 C05         -0.5690     0.0390     1.2560 cd         1 1U1      -0.100700
      6 Cl6         -2.1910     0.0400     1.6490 cl         1 1U1      -0.008400
      7 C07          3.3330     0.2560     1.7210 c          1 1U1       0.930200
      8 O08          3.7180    -0.4080     2.7000 o          1 1U1      -0.765300
      9 O09          4.0200     1.0790     1.0460 o          1 1U1      -0.765300
     10 S10          2.1860    -0.2480    -1.3670 sy         1 1U1       1.525200
     11 O11          1.3910    -0.0950    -2.5060 o          1 1U1      -0.607300
     12 O12          3.1610    -1.2260    -1.4150 o          1 1U1      -0.607300
     13 N13          3.1860     1.3060    -1.4380 nz         1 1U1      -0.807500
     14 H1          -0.6490    -0.1400    -0.9380 ha         1 1U1       0.185000
     15 H3           2.8700     1.9550    -2.1470 hn         1 1U1       0.468133
     16 H4           3.1770     1.7760    -0.5070 hn         1 1U1       0.468133
     17 H133         4.1680     1.0850    -1.6050 hn         1 1U1       0.468133
@<TRIPOS>BOND
     1     1     2 1   
     2     1     5 2   
     3     1    14 1   
     4     2     3 2   
     5     2    10 1   
     6     3     4 1   
     7     3     7 1   
     8     4     5 1   
     9     5     6 1   
    10     7     8 1   
    11     7     9 1   
    12    10    11 2   
    13    10    12 2   
    14    10    13 1   
    15    13    15 1   
    16    13    16 1   
    17    13    17 1   
@<TRIPOS>SUBSTRUCTURE
     1 1U1         1 TEMP              0 ****  ****    0 ROOT
