@<TRIPOS>MOLECULE
1U2
   40    42     1     0     0
SMALL
bcc


@<TRIPOS>ATOM
      1 O            0.0000     0.0000     0.0000 o          1 1U2      -0.679100
      2 C8           1.2160     0.0000     0.0000 c          1 1U2       0.552100
      3 N4           1.8890     0.0000     1.1670 ns         1 1U2      -0.025100
      4 C9           1.1920    -0.0960     2.3770 ca         1 1U2      -0.103400
      5 C14          1.7380    -0.8050     3.4380 ca         1 1U2      -0.111000
      6 C13          1.0480    -0.8980     4.6320 ca         1 1U2      -0.081000
      7 C12         -0.1830    -0.2860     4.7700 ca         1 1U2      -0.099000
      8 C11         -0.7290     0.4210     3.7140 ca         1 1U2      -0.081000
      9 C10         -0.0410     0.5230     2.5200 ca         1 1U2      -0.111000
     10 N3           1.8890    -0.0070    -1.1680 ns         1 1U2      -0.056100
     11 C7           1.1940    -0.1260    -2.3740 ca         1 1U2      -0.002400
     12 C6           1.6670     0.5170    -3.4980 ca         1 1U2      -0.159000
     13 C15          0.0300    -0.9000    -2.4310 ca         1 1U2      -0.077000
     14 C16         -0.6650    -1.0340    -3.5910 ca         1 1U2      -0.059000
     15 C17         -0.2140    -0.3870    -4.7560 ca         1 1U2      -0.065000
     16 C5           0.9680     0.3960    -4.7100 ca         1 1U2       0.019000
     17 C4           1.4210     1.0440    -5.8740 ca         1 1U2      -0.036000
     18 C3           0.7270     0.9190    -7.0340 ca         1 1U2      -0.126000
     19 C18         -0.9130    -0.5080    -5.9660 ca         1 1U2       0.009000
     20 C2          -0.4450     0.1460    -7.0930 ca         1 1U2      -0.258900
     21 C1          -1.1790     0.0220    -8.3720 ce         1 1U2       0.224800
     22 N2          -0.7180     0.6710    -9.4960 nz         1 1U2       0.190400
     23 N1          -2.2610    -0.7020    -8.4340 n2         1 1U2      -0.516100
     24 H8           2.8850     0.1030     1.1700 hn         1 1U2       0.162500
     25 H13          2.7030    -1.2860     3.3310 ha         1 1U2       0.123500
     26 H12          1.4740    -1.4510     5.4600 ha         1 1U2       0.108000
     27 H11         -0.7230    -0.3620     5.7060 ha         1 1U2       0.108000
     28 H10         -1.6940     0.9020     3.8260 ha         1 1U2       0.108000
     29 H9          -0.4690     1.0770     1.6930 ha         1 1U2       0.123500
     30 H7           2.8870     0.0630    -1.1700 hn         1 1U2       0.171500
     31 H6           2.6330     1.0070    -3.4760 ha         1 1U2       0.123000
     32 H14         -0.3190    -1.4060    -1.5380 ha         1 1U2       0.158000
     33 H15         -1.5640    -1.6370    -3.6180 ha         1 1U2       0.117000
     34 H5           2.3230     1.6430    -5.8450 ha         1 1U2       0.121000
     35 H4           1.0790     1.4240    -7.9250 ha         1 1U2       0.079000
     36 H16         -1.8170    -1.1030    -6.0160 ha         1 1U2       0.108000
     37 H3          -0.6910     1.6570    -9.3240 hn         1 1U2       0.220133
     38 H2          -1.3310     0.4840   -10.2650 hn         1 1U2       0.220133
     39 H1          -2.5960    -1.1750    -7.6180 hn         1 1U2       0.380400
     40 H23          0.2020     0.3450    -9.7160 hn         1 1U2       0.220133
@<TRIPOS>BOND
     1     1     2 2   
     2     2     3 1   
     3     2    10 1   
     4     3     4 1   
     5     3    24 1   
     6     4     5 ar  
     7     4     9 ar  
     8     5     6 ar  
     9     5    25 1   
    10     6     7 ar  
    11     6    26 1   
    12     7     8 ar  
    13     7    27 1   
    14     8     9 ar  
    15     8    28 1   
    16     9    29 1   
    17    10    11 1   
    18    10    30 1   
    19    11    12 ar  
    20    11    13 ar  
    21    12    16 ar  
    22    12    31 1   
    23    13    14 ar  
    24    13    32 1   
    25    14    15 ar  
    26    14    33 1   
    27    15    16 ar  
    28    15    19 ar  
    29    16    17 ar  
    30    17    18 ar  
    31    17    34 1   
    32    18    20 ar  
    33    18    35 1   
    34    19    20 ar  
    35    19    36 1   
    36    20    21 1   
    37    21    22 1   
    38    21    23 2   
    39    22    37 1   
    40    22    38 1   
    41    22    40 1   
    42    23    39 1   
@<TRIPOS>SUBSTRUCTURE
     1 1U2         1 TEMP              0 ****  ****    0 ROOT
