@<TRIPOS>MOLECULE
molecule
   40    42     1     0     0
SMALL
bcc


@<TRIPOS>ATOM
      1 O            0.0000     0.0000     0.0000 o          1 1U2      -0.629100
      2 C8           1.2160     0.0000     0.0000 c          1 1U2       0.782100
      3 N4           1.8890     0.0000     1.1670 ns         1 1U2      -0.478100
      4 C9           1.1920    -0.0960     2.3770 ca         1 1U2       0.050600
      5 C14          1.7380    -0.8050     3.4380 ca         1 1U2      -0.139000
      6 C13          1.0480    -0.8980     4.6320 ca         1 1U2      -0.110000
      7 C12         -0.1830    -0.2860     4.7700 ca         1 1U2      -0.132000
      8 C11         -0.7290     0.4210     3.7140 ca         1 1U2      -0.110000
      9 C10         -0.0410     0.5230     2.5200 ca         1 1U2      -0.139000
     10 N3           1.8890    -0.0070    -1.1680 ns         1 1U2      -0.492100
     11 C7           1.1940    -0.1260    -2.3740 ca         1 1U2       0.139600
     12 C6           1.6670     0.5170    -3.4980 ca         1 1U2      -0.184000
     13 C15          0.0300    -0.9000    -2.4310 ca         1 1U2      -0.108000
     14 C16         -0.6650    -1.0340    -3.5910 ca         1 1U2      -0.082000
     15 C17         -0.2140    -0.3870    -4.7560 ca         1 1U2      -0.077000
     16 C5           0.9680     0.3960    -4.7100 ca         1 1U2       0.017000
     17 C4           1.4210     1.0440    -5.8740 ca         1 1U2      -0.081000
     18 C3           0.7270     0.9190    -7.0340 ca         1 1U2      -0.151000
     19 C18         -0.9130    -0.5080    -5.9660 ca         1 1U2       0.018000
     20 C2          -0.4450     0.1460    -7.0930 ca         1 1U2      -0.227900
     21 C1          -1.1790     0.0220    -8.3720 ce         1 1U2       0.550800
     22 N2          -0.7180     0.6710    -9.4960 nz         1 1U2      -0.799600
     23 N1          -2.2610    -0.7020    -8.4340 n2         1 1U2      -0.702100
     24 H8           2.8850     0.1040     1.1700 hn         1 1U2       0.322500
     25 H13          2.7030    -1.2860     3.3310 ha         1 1U2       0.146000
     26 H12          1.4740    -1.4510     5.4600 ha         1 1U2       0.138500
     27 H11         -0.7230    -0.3620     5.7060 ha         1 1U2       0.137000
     28 H10         -1.6940     0.9020     3.8260 ha         1 1U2       0.138500
     29 H9          -0.4690     1.0770     1.6930 ha         1 1U2       0.146000
     30 H7           2.8880     0.0540    -1.1690 hn         1 1U2       0.329500
     31 H6           2.6330     1.0060    -3.4770 ha         1 1U2       0.148000
     32 H14         -0.3210    -1.4030    -1.5380 ha         1 1U2       0.186000
     33 H15         -1.5640    -1.6370    -3.6180 ha         1 1U2       0.154000
     34 H5           2.3230     1.6430    -5.8450 ha         1 1U2       0.153000
     35 H4           1.0790     1.4240    -7.9250 ha         1 1U2       0.098000
     36 H16         -1.8170    -1.1030    -6.0160 ha         1 1U2       0.168000
     37 H3          -0.6910     1.6570    -9.3240 hn         1 1U2       0.463133
     38 H2           0.2020     0.3450    -9.7160 hn         1 1U2       0.463133
     39 H1          -2.7580    -0.7870    -9.2980 hn         1 1U2       0.428400
     40 H23         -1.3310     0.4840   -10.2650 hn         1 1U2       0.463133
@<TRIPOS>BOND
     1    14    13 ar  
     2    14    15 ar  
     3    13    11 ar  
     4    23    21 2   
     5     8     9 ar  
     6     8     7 ar  
     7    19    15 ar  
     8    19    20 ar  
     9     9     4 ar  
    10    15    16 ar  
    11     1     2 2   
    12    21    22 1   
    13    21    20 1   
    14     7     6 ar  
    15     2    10 1   
    16     2     3 1   
    17    20    18 ar  
    18    11    10 1   
    19    11    12 ar  
    20     4     3 1   
    21     4     5 ar  
    22    16    12 ar  
    23    16    17 ar  
    24     6     5 ar  
    25    18    17 ar  
    26     3    24 1   
    27     5    25 1   
    28     6    26 1   
    29     7    27 1   
    30     8    28 1   
    31     9    29 1   
    32    10    30 1   
    33    12    31 1   
    34    13    32 1   
    35    14    33 1   
    36    17    34 1   
    37    18    35 1   
    38    19    36 1   
    39    22    37 1   
    40    22    38 1   
    41    23    39 1   
    42    40    22 1   
@<TRIPOS>SUBSTRUCTURE
     1 1U2         1 TEMP              0 ****  ****    0 ROOT
