@<TRIPOS>MOLECULE
1U2
   40    42     1     0     0
SMALL
bcc


@<TRIPOS>ATOM
      1 O            0.1180     0.0720    -0.0540 o          1 1U2      -0.598100
      2 C8           1.3650     0.1070    -0.0030 c          1 1U2       0.780100
      3 N4           2.0760     0.1790     1.2030 ns         1 1U2      -0.453100
      4 C9           1.4640    -0.0150     2.4640 ca         1 1U2       0.041600
      5 C14          0.1590     0.4360     2.7440 ca         1 1U2      -0.148000
      6 C13         -0.3700     0.2760     4.0230 ca         1 1U2      -0.107000
      7 C12          0.3780    -0.3210     5.0350 ca         1 1U2      -0.135000
      8 C11          1.6710    -0.7670     4.7650 ca         1 1U2      -0.107000
      9 C10          2.2170    -0.6250     3.4940 ca         1 1U2      -0.148000
     10 N3           2.1430     0.1190    -1.1960 ns         1 1U2      -0.478100
     11 C7           1.6200     0.1050    -2.4870 ca         1 1U2       0.148600
     12 C6           2.4240     0.5410    -3.5510 ca         1 1U2      -0.221000
     13 C15          0.3050    -0.3940    -2.7820 ca         1 1U2      -0.126000
     14 C16         -0.1530    -0.4330    -4.0720 ca         1 1U2      -0.082000
     15 C17          0.6510     0.0090    -5.1560 ca         1 1U2      -0.089000
     16 C5           1.9560     0.4990    -4.8800 ca         1 1U2       0.033000
     17 C4           2.7630     0.9590    -5.9630 ca         1 1U2      -0.095000
     18 C3           2.2980     0.9200    -7.2520 ca         1 1U2      -0.133000
     19 C18          0.1810    -0.0180    -6.4900 ca         1 1U2      -0.001000
     20 C2           0.9970     0.4120    -7.5200 ca         1 1U2      -0.254900
     21 C1           0.4920     0.4000    -8.9060 ce         1 1U2       0.646800
     22 N2           1.4230    -0.4610    -9.7830 nz         1 1U2      -0.895600
     23 N1          -0.5470     0.9880    -9.3210 n2         1 1U2      -0.683100
     24 H8           3.0570     0.0050     1.1880 hn         1 1U2       0.315500
     25 H13         -0.4540     0.9040     1.9570 ha         1 1U2       0.147500
     26 H12         -1.3920     0.6300     4.2290 ha         1 1U2       0.141500
     27 H11         -0.0480    -0.4400     6.0420 ha         1 1U2       0.142000
     28 H10          2.2670    -1.2400     5.5610 ha         1 1U2       0.141500
     29 H9           3.2390    -0.9870     3.3060 ha         1 1U2       0.147500
     30 H7           3.0980     0.4030    -1.1280 hn         1 1U2       0.321500
     31 H6           3.4380     0.9310    -3.3710 ha         1 1U2       0.146000
     32 H14         -0.3460    -0.7440    -1.9600 ha         1 1U2       0.195000
     33 H15         -1.1670    -0.8120    -4.2830 ha         1 1U2       0.150000
     34 H5           3.7650     1.3600    -5.7410 ha         1 1U2       0.156000
     35 H4           2.9130     1.3230    -8.0700 ha         1 1U2       0.126000
     36 H16         -0.8420    -0.3800    -6.6870 ha         1 1U2       0.153000
     37 H3           1.2020    -0.4090   -10.7770 hn         1 1U2       0.454800
     38 H2           2.3880    -0.1480    -9.6350 hn         1 1U2       0.454800
     39 H1          -0.8850     0.9470   -10.2570 hn         1 1U2       0.459400
     40 H23          1.3500    -1.4340    -9.4700 hn         1 1U2       0.454800
@<TRIPOS>BOND
     1     1     2 2   
     2     2     3 1   
     3     2    10 1   
     4     3     4 1   
     5     3    24 1   
     6     4     5 ar  
     7     4     9 ar  
     8     5     6 ar  
     9     5    25 1   
    10     6     7 ar  
    11     6    26 1   
    12     7     8 ar  
    13     7    27 1   
    14     8     9 ar  
    15     8    28 1   
    16     9    29 1   
    17    10    11 1   
    18    10    30 1   
    19    11    12 ar  
    20    11    13 ar  
    21    12    16 ar  
    22    12    31 1   
    23    13    14 ar  
    24    13    32 1   
    25    14    15 ar  
    26    14    33 1   
    27    15    16 ar  
    28    15    19 ar  
    29    16    17 ar  
    30    17    18 ar  
    31    17    34 1   
    32    18    20 ar  
    33    18    35 1   
    34    19    20 ar  
    35    19    36 1   
    36    20    21 1   
    37    21    22 1   
    38    21    23 2   
    39    22    37 1   
    40    22    38 1   
    41    22    40 1   
    42    23    39 1   
@<TRIPOS>SUBSTRUCTURE
     1 1U2         1 TEMP              0 ****  ****    0 ROOT
