@<TRIPOS>MOLECULE
1U3
   31    32     1     0     0
SMALL
bcc


@<TRIPOS>ATOM
      1 C01        -0.1360   -0.4690   -0.4670 c3        1 1U3     -0.175400
      2 C02         1.2870   -0.4290   -0.1430 cc        1 1U3      0.408000
      3 C03         2.0410    0.0370    0.9380 cd        1 1U3     -0.453200
      4 C04         3.4350   -0.2460    0.5570 cd        1 1U3      0.417800
      5 N05         3.4330   -0.8410   -0.6510 nc        1 1U3     -0.312300
      6 O06         2.1850   -0.9590   -1.0780 os        1 1U3     -0.099100
      7 C07         4.6260    0.0550    1.3430 ca        1 1U3     -0.201500
      8 C08         5.2920   -0.9830    2.0080 ca        1 1U3     -0.102000
      9 C09         6.4260   -0.7120    2.7710 ca        1 1U3     -0.126000
     10 C10         6.9070    0.5940    2.8700 ca        1 1U3     -0.083000
     11 C11         6.2660    1.6340    2.1980 ca        1 1U3     -0.092000
     12 C12         5.1290    1.3650    1.4270 ca        1 1U3      0.025400
     13 CL1         4.3680    2.6370    0.5990 cl        1 1U3     -0.067400
     14 C14         1.5140    0.6540    2.1340 c         1 1U3      0.593700
     15 O15         0.3290    0.9250    2.3300 o         1 1U3     -0.466100
     16 N16         2.5010    0.9670    3.1990 n4        1 1U3     -0.639800
     17 C17         1.9470    1.2410    4.5490 c3        1 1U3     -0.079200
     18 C18         2.9500    2.1890    5.3410 c         1 1U3      0.930600
     19 O19         2.7710    2.2350    6.5690 o         1 1U3     -0.765800
     20 O20         3.8030    2.7750    4.6210 o         1 1U3     -0.765800
     21 H1         -0.7360   -0.0940    0.4030 hc        1 1U3      0.094367
     22 H2         -0.4500   -1.5160   -0.7150 hc        1 1U3      0.094367
     23 H3         -0.3420    0.1780   -1.3600 hc        1 1U3      0.094367
     24 H4          4.9200   -2.0150    1.9170 ha        1 1U3      0.149000
     25 H5          6.9410   -1.5310    3.2960 ha        1 1U3      0.151000
     26 H6          7.7950    0.8110    3.4850 ha        1 1U3      0.157000
     27 H7          6.6390    2.6670    2.2880 ha        1 1U3      0.174000
     28 H8          3.1850    0.2060    3.2620 hn        1 1U3      0.475300
     29 H9          1.8080    0.2790    5.1030 hx        1 1U3      0.093700
     30 H10         0.9650    1.7740    4.4570 hx        1 1U3      0.093700
     31 H162        3.0400    1.8350    2.9420 hn        1 1U3      0.475300
@<TRIPOS>BOND
     1    1    2 1
     2    1   21 1
     3    1   22 1
     4    1   23 1
     5    2    3 2
     6    2    6 1
     7    3    4 1
     8    3   14 1
     9    4    5 2
    10    4    7 1
    11    5    6 1
    12    7    8 ar
    13    7   12 ar
    14    8    9 ar
    15    8   24 1
    16    9   10 ar
    17    9   25 1
    18   10   11 ar
    19   10   26 1
    20   11   12 ar
    21   11   27 1
    22   12   13 1
    23   14   15 2
    24   14   16 1
    25   16   17 1
    26   16   28 1
    27   16   31 1
    28   17   18 1
    29   17   29 1
    30   17   30 1
    31   18   19 1
    32   18   20 1
@<TRIPOS>SUBSTRUCTURE
     1 1U3         1 TEMP              0 ****  ****    0 ROOT
