@<TRIPOS>MOLECULE
1U4
   65    66     1     0     0
SMALL
bcc


@<TRIPOS>ATOM
      1 C9           0.0000     0.0000     0.0000 c          1 1U4       0.647100
      2 O10          1.2150     0.0000     0.0000 o          1 1U4      -0.652000
      3 O8          -0.6730     0.0000     1.1670 os         1 1U4      -0.442900
      4 C7           0.1190    -0.0020     2.3840 c3         1 1U4       0.293700
      5 C6          -0.7990    -0.0020     3.5800 ca         1 1U4      -0.088300
      6 C4          -1.2190     1.1950     4.1280 ca         1 1U4      -0.076000
      7 C2          -2.0600     1.1950     5.2260 ca         1 1U4      -0.118000
      8 C1          -2.4810    -0.0030     5.7730 ca         1 1U4      -0.115000
      9 C63         -2.0620    -1.1990     5.2240 ca         1 1U4      -0.118000
     10 C61         -1.2200    -1.1990     4.1270 ca         1 1U4      -0.076000
     11 N11         -0.6750     0.0010    -1.1670 ns         1 1U4      -0.064900
     12 C12          0.0570     0.0020    -2.4360 c3         1 1U4       0.002800
     13 P13          0.2300    -1.7100    -3.0390 p5         1 1U4       0.456500
     14 O54         -1.1120    -2.2990    -3.2430 o          1 1U4      -0.629500
     15 O55          1.0390    -2.5820    -1.9530 o          1 1U4      -0.629500
     16 N14          1.0710    -1.7090    -4.4960 n7         1 1U4      -0.573300
     17 C15          1.3210    -3.0800    -4.9600 c3         1 1U4       0.129500
     18 C16          2.8030    -3.3550    -4.9420 c          1 1U4       0.571100
     19 O17          3.5740    -2.4930    -4.5770 o          1 1U4      -0.658100
     20 C38          0.7910    -3.2400    -6.3870 c3         1 1U4       0.011900
     21 C41         -0.7070    -3.0660    -6.3880 ca         1 1U4      -0.021300
     22 C42         -1.5280    -4.1370    -6.0930 ca         1 1U4      -0.076500
     23 C50         -1.2580    -1.8350    -6.6920 ca         1 1U4      -0.076500
     24 C44         -2.9010    -3.9750    -6.0880 ca         1 1U4      -0.106500
     25 C48         -2.6310    -1.6730    -6.6920 ca         1 1U4      -0.106500
     26 C46         -3.4520    -2.7440    -6.3900 ca         1 1U4      -0.129000
     27 N18          3.2700    -4.5580    -5.3300 ns         1 1U4      -0.163900
     28 C19          4.7090    -4.8250    -5.3120 c3         1 1U4      -0.099300
     29 C33          5.3290    -4.3330    -6.5950 c          1 1U4       0.981600
     30 O34          4.6370    -3.8120    -7.4380 o          1 1U4      -0.905300
     31 C20          4.9480    -6.3300    -5.1760 c3         1 1U4      -0.020400
     32 C21          4.4310    -6.8080    -3.8170 c3         1 1U4      -0.067700
     33 C26          4.5540    -8.3310    -3.7310 c3         1 1U4       0.001900
     34 C22          5.2570    -6.1650    -2.7030 c3         1 1U4       0.001900
     35 O35          6.6470    -4.4730    -6.8010 o          1 1U4      -0.905300
     36 H7           0.7450     0.8820     2.4090 h1         1 1U4       0.014200
     37 H7A          0.7430    -0.8870     2.4070 h1         1 1U4       0.014200
     38 H4          -0.8890     2.1330     3.6990 ha         1 1U4       0.112000
     39 H2          -2.3900     2.1320     5.6570 ha         1 1U4       0.093000
     40 H1          -3.1400    -0.0030     6.6330 ha         1 1U4       0.089000
     41 H63         -2.3930    -2.1370     5.6530 ha         1 1U4       0.093000
     42 H61         -0.8920    -2.1370     3.6970 ha         1 1U4       0.112000
     43 HN11        -1.6750    -0.0050    -1.1660 hn         1 1U4       0.149500
     44 H12         -0.4870     0.5880    -3.1670 h1         1 1U4       0.029700
     45 H12A         1.0400     0.4330    -2.2860 h1         1 1U4       0.029700
     46 HN14         1.7350    -0.9860    -4.6900 hn         1 1U4       0.295800
     47 H15          0.8150    -3.7810    -4.3070 h1         1 1U4       0.063700
     48 H38          1.2420    -2.4910    -7.0260 hc         1 1U4       0.018200
     49 H38A         1.0400    -4.2280    -6.7560 hc         1 1U4       0.018200
     50 H42         -1.0960    -5.1020    -5.8560 ha         1 1U4       0.097500
     51 H50         -0.6140    -0.9960    -6.9280 ha         1 1U4       0.097500
     52 H44         -3.5450    -4.8140    -5.8540 ha         1 1U4       0.076500
     53 H48         -3.0630    -0.7090    -6.9290 ha         1 1U4       0.076500
     54 H46         -4.5280    -2.6170    -6.3890 ha         1 1U4       0.073000
     55 HN18         2.6330    -5.2690    -5.6310 hn         1 1U4       0.150500
     56 H19          5.1610    -4.3110    -4.4720 h1         1 1U4       0.062700
     57 H20          6.0090    -6.5360    -5.2510 hc         1 1U4       0.020700
     58 H20A         4.4220    -6.8520    -5.9660 hc         1 1U4       0.020700
     59 H21          3.3920    -6.5230    -3.7060 hc         1 1U4       0.033700
     60 H26          4.1400    -8.6740    -2.7900 hc         1 1U4      -0.002967
     61 H26A         5.5980    -8.6130    -3.7900 hc         1 1U4      -0.002967
     62 H26B         4.0110    -8.7840    -4.5510 hc         1 1U4      -0.002967
     63 H22          5.2530    -6.8100    -1.8320 hc         1 1U4      -0.002967
     64 H22A         4.8290    -5.2050    -2.4430 hc         1 1U4      -0.002967
     65 H22B         6.2760    -6.0250    -3.0430 hc         1 1U4      -0.002967
@<TRIPOS>BOND
     1     1     2 2   
     2     1     3 1   
     3     1    11 1   
     4     3     4 1   
     5     4     5 1   
     6     4    36 1   
     7     4    37 1   
     8     5     6 ar  
     9     5    10 ar  
    10     6     7 ar  
    11     6    38 1   
    12     7     8 ar  
    13     7    39 1   
    14     8     9 ar  
    15     8    40 1   
    16     9    10 ar  
    17     9    41 1   
    18    10    42 1   
    19    11    12 1   
    20    11    43 1   
    21    12    13 1   
    22    12    44 1   
    23    12    45 1   
    24    13    14 1   
    25    13    15 1   
    26    13    16 1   
    27    16    17 1   
    28    16    46 1   
    29    17    18 1   
    30    17    20 1   
    31    17    47 1   
    32    18    19 2   
    33    18    27 1   
    34    20    21 1   
    35    20    48 1   
    36    20    49 1   
    37    21    22 ar  
    38    21    23 ar  
    39    22    24 ar  
    40    22    50 1   
    41    23    25 ar  
    42    23    51 1   
    43    24    26 ar  
    44    24    52 1   
    45    25    26 ar  
    46    25    53 1   
    47    26    54 1   
    48    27    28 1   
    49    27    55 1   
    50    28    29 1   
    51    28    31 1   
    52    28    56 1   
    53    29    30 1   
    54    29    35 1   
    55    31    32 1   
    56    31    57 1   
    57    31    58 1   
    58    32    33 1   
    59    32    34 1   
    60    32    59 1   
    61    33    60 1   
    62    33    61 1   
    63    33    62 1   
    64    34    63 1   
    65    34    64 1   
    66    34    65 1   
@<TRIPOS>SUBSTRUCTURE
     1 1U4         1 TEMP              0 ****  ****    0 ROOT
