@<TRIPOS>MOLECULE
1U5
   27    28     1     0     0
SMALL
bcc


@<TRIPOS>ATOM
      1 C01         -0.0320    -0.0760     0.0730 c3         1 1U5      -0.081100
      2 C02          1.4800    -0.0260     0.0430 c3         1 1U5      -0.057000
      3 C03          1.9220     1.1000    -0.8560 c3         1 1U5      -0.081100
      4 C04          2.1200    -0.0110     1.4840 c3         1 1U5      -0.162000
      5 C05          1.7720     1.1120     2.3960 c3         1 1U5      -0.058100
      6 C06          3.6260    -0.1940     1.1680 c3         1 1U5      -0.080400
      7 C07          3.6250    -1.1690    -0.0220 c3         1 1U5      -0.099400
      8 C08          2.1240    -1.4210    -0.3050 c3         1 1U5       0.042800
      9 C09          1.7920    -2.0960    -1.6550 c          1 1U5       0.947600
     10 O10          2.7750    -2.4900    -2.3370 o          1 1U5      -0.812800
     11 O11          0.5860    -2.1670    -2.0090 o          1 1U5      -0.812800
     12 O12          1.6700    -2.2450     0.8350 os         1 1U5      -0.381900
     13 C13          1.6840    -1.4140     1.9350 c          1 1U5       0.716600
     14 O14          1.3860    -1.8840     3.0300 o          1 1U5      -0.630500
     15 H1          -0.3990    -0.7620     0.8750 hc         1 1U5       0.040533
     16 H2          -0.3960    -0.4730    -0.9110 hc         1 1U5       0.040533
     17 H3          -0.4540     0.9410     0.2540 hc         1 1U5       0.040533
     18 H4           1.4810     0.9490    -1.8720 hc         1 1U5       0.040533
     19 H5           1.5670     2.0770    -0.4470 hc         1 1U5       0.040533
     20 H6           3.0320     1.1460    -0.9630 hc         1 1U5       0.040533
     21 H7           0.6610     1.2060     2.4850 hc         1 1U5       0.034700
     22 H8           2.1800     2.0730     1.9980 hc         1 1U5       0.034700
     23 H9           2.1960     0.9320     3.4140 hc         1 1U5       0.034700
     24 H10          4.0880     0.7860     0.9060 hc         1 1U5       0.036200
     25 H11          4.1680    -0.6130     2.0490 hc         1 1U5       0.036200
     26 H12          4.1140    -0.7430    -0.9290 hc         1 1U5       0.066200
     27 H13          4.1310    -2.1310     0.2280 hc         1 1U5       0.066200
@<TRIPOS>BOND
     1     1     2 1   
     2     1    15 1   
     3     1    16 1   
     4     1    17 1   
     5     2     3 1   
     6     2     4 1   
     7     2     8 1   
     8     3    18 1   
     9     3    19 1   
    10     3    20 1   
    11     4     5 1   
    12     4     6 1   
    13     4    13 1   
    14     5    21 1   
    15     5    22 1   
    16     5    23 1   
    17     6     7 1   
    18     6    24 1   
    19     6    25 1   
    20     7     8 1   
    21     7    26 1   
    22     7    27 1   
    23     8     9 1   
    24     8    12 1   
    25     9    10 1   
    26     9    11 1   
    27    12    13 1   
    28    13    14 2   
@<TRIPOS>SUBSTRUCTURE
     1 1U5         1 TEMP              0 ****  ****    0 ROOT
