@<TRIPOS>MOLECULE
1U5
   27    28     1     0     0
SMALL
bcc


@<TRIPOS>ATOM
      1 C01         0.0300    0.0650   -0.0410 c3        1 1U5     -0.083100
      2 C02         1.5420    0.0470   -0.0140 c3        1 1U5     -0.052000
      3 C03         2.0640    1.1380   -0.9120 c3        1 1U5     -0.083100
      4 C04         2.1300    0.0310    1.4480 c3        1 1U5     -0.163000
      5 C05         1.8070    1.1710    2.3500 c3        1 1U5     -0.057100
      6 C06         3.6360   -0.2280    1.1900 c3        1 1U5     -0.079400
      7 C07         3.6340   -1.1870   -0.0130 c3        1 1U5     -0.101400
      8 C08         2.1330   -1.3750   -0.3430 c3        1 1U5      0.041800
      9 C09         1.8360   -2.0450   -1.7040 c         1 1U5      0.947600
     10 O10         2.4780   -3.0900   -1.9820 o         1 1U5     -0.812800
     11 O11         1.0140   -1.4680   -2.4660 o         1 1U5     -0.812800
     12 O12         1.6030   -2.1790    0.7780 os        1 1U5     -0.380900
     13 C13         1.6100   -1.3490    1.8800 c         1 1U5      0.715600
     14 O14         1.2420   -1.8040    2.9600 o         1 1U5     -0.630500
     15 H1         -0.3540    1.0780    0.2320 hc        1 1U5      0.041200
     16 H2         -0.3990   -0.6810    0.6710 hc        1 1U5      0.041200
     17 H3         -0.3070   -0.2020   -1.0760 hc        1 1U5      0.041200
     18 H4          3.1750    1.2280   -0.8710 hc        1 1U5      0.041200
     19 H5          1.6230    2.1230   -0.6220 hc        1 1U5      0.041200
     20 H6          1.7660    0.8920   -1.9640 hc        1 1U5      0.041200
     21 H7          2.2250    0.9920    3.3700 hc        1 1U5      0.034367
     22 H8          0.6990    1.2930    2.4360 hc        1 1U5      0.034367
     23 H9          2.2400    2.1170    1.9410 hc        1 1U5      0.034367
     24 H10         4.1180   -0.6870    2.0860 hc        1 1U5      0.037200
     25 H11         4.1610    0.7290    0.9640 hc        1 1U5      0.037200
     26 H12         4.1680   -0.7580   -0.8920 hc        1 1U5      0.063200
     27 H13         4.0910   -2.1730    0.2350 hc        1 1U5      0.063200
@<TRIPOS>BOND
     1    1    2 1   
     2    1   15 1   
     3    1   16 1   
     4    1   17 1   
     5    2    3 1   
     6    2    4 1   
     7    2    8 1   
     8    3   18 1   
     9    3   19 1   
    10    3   20 1   
    11    4    5 1   
    12    4    6 1   
    13    4   13 1   
    14    5   21 1   
    15    5   22 1   
    16    5   23 1   
    17    6    7 1   
    18    6   24 1   
    19    6   25 1   
    20    7    8 1   
    21    7   26 1   
    22    7   27 1   
    23    8    9 1   
    24    8   12 1   
    25    9   10 1   
    26    9   11 1   
    27   12   13 1   
    28   13   14 2   
@<TRIPOS>SUBSTRUCTURE
     1 1U5         1 TEMP              0 ****  ****    0 ROOT
