@<TRIPOS>MOLECULE
molecule
   27    28     1     0     0
SMALL
bcc


@<TRIPOS>ATOM
      1 C01          0.0000     0.0000     0.0000 c3         1 1U5      -0.067600
      2 C02          1.5300     0.0000     0.0000 c3         1 1U5      -0.073000
      3 C03          2.1040     1.1170    -0.8740 c3         1 1U5      -0.067600
      4 C04          2.1310     0.0000     1.4530 c3         1 1U5      -0.202000
      5 C05          1.7660     1.1820     2.3540 c3         1 1U5      -0.046100
      6 C06          3.6480    -0.1890     1.1310 c3         1 1U5      -0.079400
      7 C07          3.6450    -1.1510    -0.0820 c3         1 1U5      -0.100400
      8 C08          2.1300    -1.4080    -0.3540 c3         1 1U5       0.078800
      9 C09          1.7860    -1.9590    -1.7140 c          1 1U5       0.917600
     10 O10          1.8030    -3.2850    -1.9250 o          1 1U5      -0.814800
     11 O11          1.4960    -1.2080    -2.6150 o          1 1U5      -0.814800
     12 O12          1.6770    -2.1930     0.8130 os         1 1U5      -0.366900
     13 C13          1.6760    -1.3970     1.9030 c          1 1U5       0.738600
     14 O14          1.3720    -1.7210     3.0270 o          1 1U5      -0.623500
     15 H1          -0.3610    -0.7900     0.6470 hc         1 1U5       0.037533
     16 H2          -0.3610    -0.1650    -1.0080 hc         1 1U5       0.037533
     17 H3          -0.3610     0.9560     0.3610 hc         1 1U5       0.037533
     18 H4           2.6640     1.8090    -0.2550 hc         1 1U5       0.037533
     19 H5           1.2950     1.6450    -1.3640 hc         1 1U5       0.037533
     20 H6           2.7610     0.6900    -1.6220 hc         1 1U5       0.037533
     21 H7           1.9230     2.1090     1.8160 hc         1 1U5       0.032700
     22 H8           0.7250     1.1060     2.6460 hc         1 1U5       0.032700
     23 H9           2.3910     1.1680     3.2390 hc         1 1U5       0.032700
     24 H10          4.1630    -0.6380     1.9720 hc         1 1U5       0.039200
     25 H11          4.1020     0.7580     0.8650 hc         1 1U5       0.039200
     26 H12          4.1110    -0.6820    -0.9400 hc         1 1U5       0.059700
     27 H13          4.1490    -2.0770     0.1670 hc         1 1U5       0.059700
@<TRIPOS>BOND
     1    14    13 2   
     2     5     4 1   
     3    13     4 1   
     4    13    12 1   
     5     4     6 1   
     6     4     2 1   
     7     6     7 1   
     8    12     8 1   
     9     7     8 1   
    10     2     8 1   
    11     2     1 1   
    12     2     3 1   
    13     8     9 1   
    14    11     9 1   
    15     9    10 1   
    16     1    15 1   
    17     1    16 1   
    18     1    17 1   
    19     3    18 1   
    20     3    19 1   
    21     3    20 1   
    22     5    21 1   
    23     5    22 1   
    24     5    23 1   
    25     6    24 1   
    26     6    25 1   
    27     7    26 1   
    28     7    27 1   
@<TRIPOS>SUBSTRUCTURE
     1 1U5         1 TEMP              0 ****  ****    0 ROOT
