@<TRIPOS>MOLECULE
1U6
   25    25     1     0     0
SMALL
bcc


@<TRIPOS>ATOM
      1 C01         -0.0300     0.0480     0.0520 c3         1 1U6      -0.111100
      2 C02          1.4830    -0.0500    -0.0450 c3         1 1U6       0.077000
      3 N03          2.1760     0.0060     1.2410 n          1 1U6      -0.457400
      4 C04          2.4490     1.2760     1.7790 c          1 1U6       0.698500
      5 O05          2.1060     2.3020     1.1700 o          1 1U6      -0.584500
      6 C06          3.1750     1.3750     3.0910 c3         1 1U6      -0.237400
      7 C07          3.4810     0.0740     3.7770 c          1 1U6       0.698500
      8 O08          4.0280     0.0640     4.8920 o          1 1U6      -0.584500
      9 N09          3.1540    -1.1330     3.1350 n          1 1U6      -0.457400
     10 C10          3.4830    -2.3780     3.8270 c3         1 1U6       0.077000
     11 C11          2.4410    -2.8290     4.8370 c3         1 1U6      -0.111100
     12 C12          2.4870    -1.1960     1.8990 cs         1 1U6       0.561400
     13 S13          2.1080    -2.6180     1.2400 s          1 1U6      -0.469400
     14 H1          -0.3390     1.0050     0.5360 hc         1 1U6       0.050700
     15 H2          -0.4480     0.0190    -0.9830 hc         1 1U6       0.050700
     16 H3          -0.4550    -0.8060     0.6320 hc         1 1U6       0.050700
     17 H4           1.8700     0.8140    -0.6610 h1         1 1U6       0.086200
     18 H5           1.7660    -1.0150    -0.5610 h1         1 1U6       0.086200
     19 H6           4.1460     1.9200     2.9160 hc         1 1U6       0.126200
     20 H7           2.5610     2.0100     3.7900 hc         1 1U6       0.126200
     21 H8           4.4630    -2.2050     4.3600 h1         1 1U6       0.086200
     22 H9           3.6320    -3.1880     3.0530 h1         1 1U6       0.086200
     23 H10          2.2920    -2.0570     5.6300 hc         1 1U6       0.050700
     24 H11          2.8060    -3.7690     5.3170 hc         1 1U6       0.050700
     25 H12          1.4620    -3.0370     4.3440 hc         1 1U6       0.050700
@<TRIPOS>BOND
     1     1     2 1   
     2     1    14 1   
     3     1    15 1   
     4     1    16 1   
     5     2     3 1   
     6     2    17 1   
     7     2    18 1   
     8     3     4 1   
     9     3    12 1   
    10     4     5 2   
    11     4     6 1   
    12     6     7 1   
    13     6    19 1   
    14     6    20 1   
    15     7     8 2   
    16     7     9 1   
    17     9    10 1   
    18     9    12 1   
    19    10    11 1   
    20    10    21 1   
    21    10    22 1   
    22    11    23 1   
    23    11    24 1   
    24    11    25 1   
    25    12    13 2   
@<TRIPOS>SUBSTRUCTURE
     1 1U6         1 TEMP              0 ****  ****    0 ROOT
