@<TRIPOS>MOLECULE
molecule
   25    25     1     0     0
SMALL
bcc


@<TRIPOS>ATOM
      1 C01          0.0000     0.0000     0.0000 c3         1 1U6      -0.109100
      2 C02          1.5300     0.0000     0.0000 c3         1 1U6       0.081000
      3 N03          2.0180     0.0000     1.3810 n          1 1U6      -0.417400
      4 C04          2.2370    -1.1810     1.9980 c          1 1U6       0.688500
      5 O05          2.0370    -2.2330     1.4310 o          1 1U6      -0.566000
      6 C06          2.7440    -1.1410     3.4270 c3         1 1U6      -0.245400
      7 C07          2.9550     0.2360     4.0260 c          1 1U6       0.688500
      8 O08          3.3580     0.3740     5.1620 o          1 1U6      -0.566000
      9 N09          2.6790     1.3040     3.2480 n          1 1U6      -0.417400
     10 C10          2.8730     2.6500     3.7930 c3         1 1U6       0.081000
     11 C11          4.3000     3.1190     3.5000 c3         1 1U6      -0.109100
     12 C12          2.2410     1.1700     1.9900 cs         1 1U6       0.581400
     13 S13          1.9260     2.5990     1.1030 s          1 1U6      -0.606400
     14 H1          -0.3610     0.8480     0.5690 hc         1 1U6       0.051033
     15 H2          -0.3610    -0.9170     0.4500 hc         1 1U6       0.051033
     16 H3          -0.3610     0.0690    -1.0190 hc         1 1U6       0.051033
     17 H4           1.8910    -0.8840    -0.5110 h1         1 1U6       0.091950
     18 H5           1.8910     0.8840    -0.5110 h1         1 1U6       0.091950
     19 H6           1.9770    -1.6140     4.0290 hc         1 1U6       0.119700
     20 H7           3.7190    -1.6130     3.4110 hc         1 1U6       0.119700
     21 H8           2.1680     3.3310     3.3320 h1         1 1U6       0.091950
     22 H9           2.7120     2.6320     4.8640 h1         1 1U6       0.091950
     23 H10          4.4130     4.1490     3.8170 hc         1 1U6       0.051033
     24 H11          4.4940     3.0440     2.4370 hc         1 1U6       0.051033
     25 H12          5.0020     2.4960     4.0410 hc         1 1U6       0.051033
@<TRIPOS>BOND
     1    11    10 1
     2    10     9 1
     3     8     7 2
     4     9     7 1
     5     9    12 1
     6     7     6 1
     7    13    12 2
     8    12     3 1
     9     6     4 1
    10     3     4 1
    11     3     2 1
    12     4     5 2
    13     1     2 1
    14     1    14 1
    15     1    15 1
    16     1    16 1
    17     2    17 1
    18     2    18 1
    19     6    19 1
    20     6    20 1
    21    10    21 1
    22    10    22 1
    23    11    23 1
    24    11    24 1
    25    11    25 1
@<TRIPOS>SUBSTRUCTURE
     1 1U6         1 TEMP              0 ****  ****    0 ROOT
