@<TRIPOS>MOLECULE
1U6
   25    25     1     0     0
SMALL
bcc


@<TRIPOS>ATOM
      1 C01          0.0000     0.0000     0.0000 c3         1 1U6      -0.011100
      2 C02          1.5300     0.0000     0.0000 c3         1 1U6      -0.016500
      3 N03          2.0180     0.0000     1.3810 n          1 1U6       0.013600
      4 C04          2.2370    -1.1810     1.9980 c          1 1U6       0.596500
      5 O05          2.0370    -2.2330     1.4310 o          1 1U6      -0.591500
      6 C06          2.7440    -1.1410     3.4270 c3         1 1U6      -0.191400
      7 C07          2.9550     0.2360     4.0260 c          1 1U6       0.596500
      8 O08          3.3580     0.3740     5.1620 o          1 1U6      -0.591500
      9 N09          2.6790     1.3040     3.2480 n          1 1U6       0.013600
     10 C10          2.8730     2.6500     3.7930 c3         1 1U6      -0.016500
     11 C11          4.3000     3.1190     3.5000 c3         1 1U6      -0.011100
     12 C12          2.2410     1.1700     1.9900 cs         1 1U6       0.272400
     13 S13          1.9260     2.5990     1.1030 s          1 1U6      -0.620400
     14 H1          -0.3610     0.8480     0.5690 hc         1 1U6       0.018533
     15 H2          -0.3610    -0.9170     0.4500 hc         1 1U6       0.018533
     16 H3          -0.3610     0.0690    -1.0190 hc         1 1U6       0.018533
     17 H4           1.8910    -0.8840    -0.5110 h1         1 1U6       0.071200
     18 H5           1.8910     0.8840    -0.5110 h1         1 1U6       0.071200
     19 H6           1.9770    -1.6140     4.0290 hc         1 1U6       0.080700
     20 H7           3.7190    -1.6130     3.4110 hc         1 1U6       0.080700
     21 H8           2.1680     3.3310     3.3320 h1         1 1U6       0.071200
     22 H9           2.7120     2.6320     4.8640 h1         1 1U6       0.071200
     23 H10          4.4130     4.1490     3.8170 hc         1 1U6       0.018533
     24 H11          4.4940     3.0440     2.4370 hc         1 1U6       0.018533
     25 H12          5.0020     2.4960     4.0410 hc         1 1U6       0.018533
@<TRIPOS>BOND
     1     1     2 1   
     2     1    14 1   
     3     1    15 1   
     4     1    16 1   
     5     2     3 1   
     6     2    17 1   
     7     2    18 1   
     8     3     4 1   
     9     3    12 1   
    10     4     5 2   
    11     4     6 1   
    12     6     7 1   
    13     6    19 1   
    14     6    20 1   
    15     7     8 2   
    16     7     9 1   
    17     9    10 1   
    18     9    12 1   
    19    10    11 1   
    20    10    21 1   
    21    10    22 1   
    22    11    23 1   
    23    11    24 1   
    24    11    25 1   
    25    12    13 2   
@<TRIPOS>SUBSTRUCTURE
     1 1U6         1 TEMP              0 ****  ****    0 ROOT
