@<TRIPOS>MOLECULE
1U7
   38    40     1     0     0
SMALL
bcc


@<TRIPOS>ATOM
      1 C01          0.0820     0.0470    -0.0850 c3         1 1U7       0.174500
      2 C02          1.6160    -0.0220    -0.0350 c3         1 1U7      -0.074400
      3 C03          2.1000    -0.0630     1.3990 c3         1 1U7      -0.077400
      4 C04          1.6010     1.1330     2.1830 c3         1 1U7      -0.076400
      5 C05          0.0920     1.2380     2.1170 c3         1 1U7      -0.076400
      6 C06         -0.3920     1.3040     0.6780 c3         1 1U7      -0.035700
      7 C07         -1.9300     1.4270     0.6090 c3         1 1U7       0.199100
      8 O08         -2.4540     0.2970     1.3090 oh         1 1U7      -0.594800
      9 C09         -2.3920     2.7190     1.2440 ca         1 1U7      -0.109300
     10 C10         -2.0390     3.9480     0.6730 ca         1 1U7      -0.122500
     11 C11         -2.4700     5.1430     1.2460 ca         1 1U7      -0.130500
     12 C12         -3.2570     5.1250     2.3970 ca         1 1U7      -0.129000
     13 C13         -3.6020     3.9060     2.9780 ca         1 1U7      -0.130500
     14 C14         -3.1700     2.7100     2.4080 ca         1 1U7      -0.122500
     15 C15         -2.3890     1.3780    -0.8570 c3         1 1U7      -0.102400
     16 C16         -1.8460     0.1330    -1.5540 c3         1 1U7       0.167800
     17 N17         -0.4040     0.0340    -1.4640 n7         1 1U7      -0.818200
     18 H1          -0.3240    -0.8480     0.4860 h1         1 1U7       0.034700
     19 H2           2.0510     0.8700    -0.5570 hc         1 1U7       0.044700
     20 H3           1.9730    -0.9380    -0.5740 hc         1 1U7       0.044700
     21 H4           1.7430    -1.0060     1.8890 hc         1 1U7       0.039700
     22 H5           3.2210    -0.0810     1.4110 hc         1 1U7       0.039700
     23 H6           2.0620     2.0690     1.7710 hc         1 1U7       0.039200
     24 H7           1.9220     1.0420     3.2530 hc         1 1U7       0.039200
     25 H8          -0.3750     0.3520     2.6230 hc         1 1U7       0.053700
     26 H9          -0.2490     2.1560     2.6620 hc         1 1U7       0.053700
     27 H10          0.0360     2.2180     0.1820 hc         1 1U7       0.063700
     28 H11         -3.4080     0.2940     1.1620 ho         1 1U7       0.399000
     29 H12         -1.4100     3.9760    -0.2310 ha         1 1U7       0.138500
     30 H13         -2.1880     6.1020     0.7870 ha         1 1U7       0.132000
     31 H14         -3.5990     6.0690     2.8470 ha         1 1U7       0.131000
     32 H15         -4.2140     3.8850     3.8920 ha         1 1U7       0.132000
     33 H16         -3.4300     1.7520     2.8860 ha         1 1U7       0.138500
     34 H17         -2.0370     2.2980    -1.3880 hc         1 1U7       0.054700
     35 H18         -3.5080     1.3580    -0.9020 hc         1 1U7       0.054700
     36 H19         -2.1150     0.1780    -2.6460 h1         1 1U7       0.031200
     37 H20         -2.3650    -0.7670    -1.1050 h1         1 1U7       0.031200
     38 H21         -0.0890    -0.8020    -1.9210 hn         1 1U7       0.360800
@<TRIPOS>BOND
     1     1     2 1   
     2     1     6 1   
     3     1    17 1   
     4     1    18 1   
     5     2     3 1   
     6     2    19 1   
     7     2    20 1   
     8     3     4 1   
     9     3    21 1   
    10     3    22 1   
    11     4     5 1   
    12     4    23 1   
    13     4    24 1   
    14     5     6 1   
    15     5    25 1   
    16     5    26 1   
    17     6     7 1   
    18     6    27 1   
    19     7     8 1   
    20     7     9 1   
    21     7    15 1   
    22     8    28 1   
    23     9    10 ar  
    24     9    14 ar  
    25    10    11 ar  
    26    10    29 1   
    27    11    12 ar  
    28    11    30 1   
    29    12    13 ar  
    30    12    31 1   
    31    13    14 ar  
    32    13    32 1   
    33    14    33 1   
    34    15    16 1   
    35    15    34 1   
    36    15    35 1   
    37    16    17 1   
    38    16    36 1   
    39    16    37 1   
    40    17    38 1   
@<TRIPOS>SUBSTRUCTURE
     1 1U7         1 TEMP              0 ****  ****    0 ROOT
