@<TRIPOS>MOLECULE
1U7
   38    40     1     0     0
SMALL
bcc


@<TRIPOS>ATOM
      1 C01          0.0000     0.0000     0.0000 c3         1 1U7       0.120500
      2 C02          1.5300     0.0000     0.0000 c3         1 1U7      -0.022400
      3 C03          2.0370     0.0000     1.4440 c3         1 1U7      -0.022400
      4 C04          1.5250     1.2460     2.1680 c3         1 1U7      -0.024400
      5 C05         -0.0060     1.2480     2.1630 c3         1 1U7      -0.034400
      6 C06         -0.5070     1.2520     0.7180 c3         1 1U7      -0.042700
      7 C07         -2.0380     1.2510     0.7060 c3         1 1U7       0.229100
      8 O08         -2.5220     0.1110     1.4180 oh         1 1U7      -0.585800
      9 C09         -2.5470     2.5090     1.3620 ca         1 1U7      -0.113300
     10 C10         -1.8040     3.6720     1.2960 ca         1 1U7      -0.095500
     11 C11         -2.2710     4.8260     1.8990 ca         1 1U7      -0.099000
     12 C12         -3.4810     4.8150     2.5670 ca         1 1U7      -0.101000
     13 C13         -4.2260     3.6530     2.6310 ca         1 1U7      -0.099000
     14 C14         -3.7600     2.5010     2.0240 ca         1 1U7      -0.095500
     15 C15         -2.5280     1.1960    -0.7440 c3         1 1U7      -0.058400
     16 C16         -1.9560    -0.0500    -1.4240 c3         1 1U7       0.150800
     17 N17         -0.4940    -0.0070    -1.3820 n7         1 1U7      -0.580200
     18 H1          -0.3600    -0.8820     0.5160 h1         1 1U7       0.025700
     19 H2           1.8900     0.8860    -0.5080 hc         1 1U7       0.017700
     20 H3           1.8900    -0.8860    -0.5080 hc         1 1U7       0.017700
     21 H4           1.6750    -0.8850     1.9520 hc         1 1U7       0.013200
     22 H5           3.1210     0.0040     1.4440 hc         1 1U7       0.013200
     23 H6           1.8810     1.2400     3.1910 hc         1 1U7       0.012200
     24 H7           1.8870     2.1320     1.6590 hc         1 1U7       0.012200
     25 H8          -0.3670     2.1330     2.6720 hc         1 1U7       0.030700
     26 H9          -0.3680     0.3610     2.6680 hc         1 1U7       0.030700
     27 H10         -0.1410     2.1350     0.2090 hc         1 1U7       0.051700
     28 H11         -3.4240    -0.0420     1.1910 ho         1 1U7       0.394000
     29 H12         -0.8550     3.6810     0.7730 ha         1 1U7       0.110500
     30 H13         -1.6890     5.7380     1.8490 ha         1 1U7       0.102500
     31 H14         -3.8460     5.7190     3.0400 ha         1 1U7       0.102000
     32 H15         -5.1760     3.6450     3.1520 ha         1 1U7       0.102500
     33 H16         -4.3430     1.5890     2.0750 ha         1 1U7       0.110500
     34 H17         -3.6100     1.1500    -0.7580 hc         1 1U7       0.028200
     35 H18         -2.1920     2.0810    -1.2720 hc         1 1U7       0.028200
     36 H19         -2.2850    -0.0790    -2.4560 h1         1 1U7       0.007200
     37 H20         -2.3040    -0.9340    -0.9040 h1         1 1U7       0.007200
     38 H21         -0.1230    -0.8010    -1.8650 hn         1 1U7       0.253800
@<TRIPOS>BOND
     1     1     2 1   
     2     1     6 1   
     3     1    17 1   
     4     1    18 1   
     5     2     3 1   
     6     2    19 1   
     7     2    20 1   
     8     3     4 1   
     9     3    21 1   
    10     3    22 1   
    11     4     5 1   
    12     4    23 1   
    13     4    24 1   
    14     5     6 1   
    15     5    25 1   
    16     5    26 1   
    17     6     7 1   
    18     6    27 1   
    19     7     8 1   
    20     7     9 1   
    21     7    15 1   
    22     8    28 1   
    23     9    10 ar  
    24     9    14 ar  
    25    10    11 ar  
    26    10    29 1   
    27    11    12 ar  
    28    11    30 1   
    29    12    13 ar  
    30    12    31 1   
    31    13    14 ar  
    32    13    32 1   
    33    14    33 1   
    34    15    16 1   
    35    15    34 1   
    36    15    35 1   
    37    16    17 1   
    38    16    36 1   
    39    16    37 1   
    40    17    38 1   
@<TRIPOS>SUBSTRUCTURE
     1 1U7         1 TEMP              0 ****  ****    0 ROOT
