@<TRIPOS>MOLECULE
1U9
   45    47     1     0     0
SMALL
bcc


@<TRIPOS>ATOM
      1 O           -0.5400     0.3130     1.0410 oh         1 1U9      -0.611800
      2 C16          0.6420     0.3320     0.2530 c3         1 1U9       0.132400
      3 C15          1.8330     0.2360     1.1950 c3         1 1U9      -0.043100
      4 C14          2.2030     1.5410     1.8080 ca         1 1U9      -0.081300
      5 C13          3.4990     2.0500     1.6690 ca         1 1U9      -0.106000
      6 C12          3.8450     3.2570     2.2750 ca         1 1U9      -0.133000
      7 C11          2.9060     3.9660     3.0190 ca         1 1U9      -0.107000
      8 C17          1.2610     2.2530     2.5560 ca         1 1U9      -0.095000
      9 C10          1.6010     3.4720     3.1640 ca         1 1U9      -0.092800
     10 C9           0.5900     4.1690     3.9380 ce         1 1U9      -0.031200
     11 C8           0.6570     5.4620     4.3050 cf         1 1U9      -0.170200
     12 C7          -0.3560     6.1490     5.0830 ca         1 1U9       0.019200
     13 C6          -0.4220     7.5350     5.0490 ca         1 1U9      -0.136000
     14 C18         -1.2770     5.4330     5.9000 ca         1 1U9      -0.107000
     15 C19         -2.2280     6.0920     6.6370 ca         1 1U9      -0.104000
     16 C20         -2.3140     7.5100     6.6040 ca         1 1U9      -0.066000
     17 C5          -1.3930     8.2360     5.8000 ca         1 1U9       0.000000
     18 C4          -1.4640     9.6600     5.7820 ca         1 1U9      -0.081000
     19 C3          -2.4140    10.3260     6.5120 ca         1 1U9      -0.146000
     20 C21         -3.2860     8.2120     7.3590 ca         1 1U9      -0.012000
     21 C2          -3.3440     9.5910     7.2980 ca         1 1U9      -0.241900
     22 C1          -4.3500    10.3170     8.0980 ce         1 1U9       0.644800
     23 N2          -5.2260    11.1740     7.1640 nz         1 1U9      -0.895600
     24 N1          -4.4890    10.2450     9.3530 n2         1 1U9      -0.682100
     25 H16         -1.2810     0.2740     0.4260 ho         1 1U9       0.403000
     26 H14          0.6790     1.2790    -0.3490 h1         1 1U9       0.030700
     27 H15          0.6430    -0.5470    -0.4470 h1         1 1U9       0.030700
     28 H13          1.5880    -0.4940     2.0150 hc         1 1U9       0.066700
     29 H12          2.7010    -0.1780     0.6160 hc         1 1U9       0.066700
     30 H11          4.2490     1.4960     1.0840 ha         1 1U9       0.139000
     31 H10          4.8670     3.6490     2.1670 ha         1 1U9       0.139000
     32 H9           3.1980     4.9100     3.5020 ha         1 1U9       0.131000
     33 H17          0.2400     1.8450     2.6540 ha         1 1U9       0.156000
     34 H8          -0.2890     3.5530     4.2060 ha         1 1U9       0.128000
     35 H7           1.5140     6.0890     4.0020 ha         1 1U9       0.140000
     36 H6           0.2870     8.1080     4.4310 ha         1 1U9       0.151000
     37 H18         -1.2100     4.3330     5.9440 ha         1 1U9       0.156000
     38 H19         -2.9340     5.5310     7.2710 ha         1 1U9       0.146000
     39 H5          -0.7300    10.2160     5.1760 ha         1 1U9       0.158000
     40 H4          -2.4260    11.4260     6.5250 ha         1 1U9       0.126000
     41 H20         -3.9820     7.6390     7.9940 ha         1 1U9       0.153000
     42 H3          -4.6090    11.7300     6.5620 hn         1 1U9       0.455133
     43 H2          -5.7730    10.5450     6.5690 hn         1 1U9       0.455133
     44 H1          -5.1880    10.7270     9.8720 hn         1 1U9       0.460400
     45 H23         -5.8580    11.7980     7.6660 hn         1 1U9       0.455133
@<TRIPOS>BOND
     1     1     2 1   
     2     1    25 1   
     3     2     3 1   
     4     2    26 1   
     5     2    27 1   
     6     3     4 1   
     7     3    28 1   
     8     3    29 1   
     9     4     5 ar  
    10     4     8 ar  
    11     5     6 ar  
    12     5    30 1   
    13     6     7 ar  
    14     6    31 1   
    15     7     9 ar  
    16     7    32 1   
    17     8     9 ar  
    18     8    33 1   
    19     9    10 1   
    20    10    11 2   
    21    10    34 1   
    22    11    12 1   
    23    11    35 1   
    24    12    13 ar  
    25    12    14 ar  
    26    13    17 ar  
    27    13    36 1   
    28    14    15 ar  
    29    14    37 1   
    30    15    16 ar  
    31    15    38 1   
    32    16    17 ar  
    33    16    20 ar  
    34    17    18 ar  
    35    18    19 ar  
    36    18    39 1   
    37    19    21 ar  
    38    19    40 1   
    39    20    21 ar  
    40    20    41 1   
    41    21    22 1   
    42    22    23 1   
    43    22    24 2   
    44    23    42 1   
    45    23    43 1   
    46    23    45 1   
    47    24    44 1   
@<TRIPOS>SUBSTRUCTURE
     1 1U9         1 TEMP              0 ****  ****    0 ROOT
