@<TRIPOS>MOLECULE
molecule
   45    47     1     0     0
SMALL
bcc


@<TRIPOS>ATOM
      1 O            0.0000     0.0000     0.0000 oh         1 1U9      -0.609800
      2 C16          1.4290     0.0000     0.0000 c3         1 1U9       0.145400
      3 C15          1.9390     0.0000     1.4420 c3         1 1U9      -0.037100
      4 C14          3.4460    -0.0000     1.4430 ca         1 1U9      -0.083300
      5 C13          4.1370     1.1990     1.4420 ca         1 1U9      -0.103000
      6 C12          5.5210     1.2090     1.4420 ca         1 1U9      -0.125000
      7 C11          6.2220     0.0210     1.4440 ca         1 1U9      -0.111000
      8 C17          4.1340    -1.1950     1.4490 ca         1 1U9      -0.099000
      9 C10          5.5320    -1.1940     1.4440 ca         1 1U9      -0.085800
     10 C9           6.2740    -2.4670     1.4500 ce         1 1U9      -0.045200
     11 C8           7.6170    -2.4610     1.4460 cf         1 1U9      -0.164200
     12 C7           8.3590    -3.7340     1.4520 ca         1 1U9       0.013200
     13 C6           9.7460    -3.7220     1.4480 ca         1 1U9      -0.131000
     14 C18          7.6540    -4.9530     1.4690 ca         1 1U9      -0.112000
     15 C19          8.3160    -6.1380     1.4760 ca         1 1U9      -0.092000
     16 C20          9.7240    -6.1580     1.4670 ca         1 1U9      -0.068000
     17 C5          10.4460    -4.9360     1.4540 ca         1 1U9       0.002000
     18 C4          11.8540    -4.9590     1.4440 ca         1 1U9      -0.076000
     19 C3          12.5140    -6.1450     1.4450 ca         1 1U9      -0.155000
     20 C21         10.4250    -7.3730     1.4750 ca         1 1U9       0.014000
     21 C2          11.8100    -7.3610     1.4570 ca         1 1U9      -0.223900
     22 C1          12.5540    -8.6400     1.4650 ce         1 1U9       0.550800
     23 N2          13.9320    -8.6350     1.4480 nz         1 1U9      -0.800600
     24 N1          11.9070    -9.7710     1.4860 n2         1 1U9      -0.703100
     25 H16         -0.3140     0.0000    -0.8890 ho         1 1U9       0.408000
     26 H14          1.7900     0.8850    -0.5110 h1         1 1U9       0.022700
     27 H15          1.7900    -0.8850    -0.5110 h1         1 1U9       0.022700
     28 H13          1.5780    -0.8840     1.9530 hc         1 1U9       0.065200
     29 H12          1.5780     0.8850     1.9530 hc         1 1U9       0.065200
     30 H11          3.5910     2.1350     1.4410 ha         1 1U9       0.141000
     31 H10          6.0550     2.1520     1.4420 ha         1 1U9       0.139000
     32 H9           7.3050     0.0300     1.4420 ha         1 1U9       0.130000
     33 H17          3.5920    -2.1330     1.4490 ha         1 1U9       0.136000
     34 H8           5.7360    -3.4070     1.4580 ha         1 1U9       0.133000
     35 H7           8.1540    -1.5210     1.4380 ha         1 1U9       0.147000
     36 H6          10.2800    -2.7880     1.5720 ha         1 1U9       0.152000
     37 H18          6.5710    -4.9450     1.4770 ha         1 1U9       0.152000
     38 H19          7.7610    -7.0680     1.4890 ha         1 1U9       0.148000
     39 H5          12.4100    -4.0300     1.4340 ha         1 1U9       0.155000
     40 H4          13.5970    -6.1540     1.4320 ha         1 1U9       0.099000
     41 H20          9.8880    -8.3130     1.4840 ha         1 1U9       0.168000
     42 H3          14.2540    -8.1700     0.6230 hn         1 1U9       0.463467
     43 H2          14.2740    -8.1550     2.2570 hn         1 1U9       0.463467
     44 H1          12.4100   -10.6360     1.4910 hn         1 1U9       0.428400
     45 H23         14.2690    -9.5770     1.4520 hn         1 1U9       0.463467
@<TRIPOS>BOND
     1     1     2 1   
     2     2     3 1   
     3     3     4 1   
     4    15    14 ar  
     5    15    16 ar  
     6    14    12 ar  
     7    24    22 2   
     8    20    16 ar  
     9    20    21 ar  
    10     8     4 ar  
    11     8     9 ar  
    12    16    17 ar  
    13    22    23 1   
    14    22    21 1   
    15     4     5 ar  
    16    21    19 ar  
    17    10     9 1   
    18    10    11 2   
    19    12    11 1   
    20    12    13 ar  
    21     9     7 ar  
    22    17    13 ar  
    23    17    18 ar  
    24    19    18 ar  
    25     5     6 ar  
    26     7     6 ar  
    27     1    25 1   
    28     2    26 1   
    29     2    27 1   
    30     3    28 1   
    31     3    29 1   
    32     5    30 1   
    33     6    31 1   
    34     7    32 1   
    35     8    33 1   
    36    10    34 1   
    37    11    35 1   
    38    13    36 1   
    39    14    37 1   
    40    15    38 1   
    41    18    39 1   
    42    19    40 1   
    43    20    41 1   
    44    23    42 1   
    45    23    43 1   
    46    24    44 1   
    47    45    23 1   
@<TRIPOS>SUBSTRUCTURE
     1 1U9         1 TEMP              0 ****  ****    0 ROOT
