@<TRIPOS>MOLECULE
1U9
   45    49     1     0     0
SMALL
bcc


@<TRIPOS>ATOM
      1 O            0.0000     0.0000     0.0000 oh         1 1U9      -0.319000
      2 C16          1.4290     0.0000     0.0000 c3         1 1U9       0.079000
      3 C15          1.9390     0.0000     1.4420 c3         1 1U9      -0.069000
      4 C14          3.4460    -0.0000     1.4430 c2         1 1U9      -0.069000
      5 C13          4.1370     1.1990     1.4420 c2         1 1U9      -0.074000
      6 C12          5.5210     1.2090     1.4420 c2         1 1U9      -0.088000
      7 C11          6.2220     0.0210     1.4440 c2         1 1U9      -0.106000
      8 C17          4.1340    -1.1950     1.4490 c2         1 1U9      -0.086000
      9 C10          5.5320    -1.1940     1.4440 c3         1 1U9      -0.093000
     10 C9           6.2740    -2.4670     1.4500 c2         1 1U9      -0.136000
     11 C8           7.6170    -2.4610     1.4460 c2         1 1U9      -0.111000
     12 C7           8.3590    -3.7340     1.4520 c3         1 1U9       0.010000
     13 C6           9.7460    -3.7220     1.4480 c2         1 1U9      -0.158000
     14 C18          7.6540    -4.9530     1.4690 c2         1 1U9      -0.103000
     15 C19          8.3160    -6.1380     1.4760 c2         1 1U9      -0.060000
     16 C20          9.7240    -6.1580     1.4670 ca         1 1U9      -0.077000
     17 C5          10.4460    -4.9360     1.4540 ca         1 1U9       0.024000
     18 C4          11.8540    -4.9590     1.4440 ca         1 1U9      -0.040000
     19 C3          12.5140    -6.1450     1.4450 ca         1 1U9      -0.121000
     20 C21         10.4250    -7.3730     1.4750 ca         1 1U9       0.012000
     21 C2          11.8100    -7.3610     1.4570 ca         1 1U9      -0.182000
     22 C1          12.5540    -8.6400     1.4650 c2         1 1U9      -0.296000
     23 N2          13.9320    -8.6350     1.4480 nz         1 1U9       0.957000
     24 N1          11.9070    -9.7710     1.4860 n2         1 1U9       0.009000
     25 H16         -0.3140     0.0000    -0.8890 ho         1 1U9       0.195000
     26 H14          1.7900     0.8850    -0.5110 h1         1 1U9       0.025500
     27 H15          1.7900    -0.8850    -0.5110 h1         1 1U9       0.025500
     28 H13          1.5780    -0.8840     1.9530 hc         1 1U9       0.071500
     29 H12          1.5780     0.8850     1.9530 hc         1 1U9       0.071500
     30 H11          3.5910     2.1350     1.4410 ha         1 1U9       0.116000
     31 H10          6.0550     2.1520     1.4420 ha         1 1U9       0.114000
     32 H9           7.3050     0.0300     1.4420 ha         1 1U9       0.124000
     33 H17          3.5920    -2.1330     1.4490 ha         1 1U9       0.122000
     34 H8           6.1280    -1.8390     2.3210 DU         1 1U9       0.212000
     35 H7           7.7630    -3.0890     0.5750 DU         1 1U9       0.144000
     36 H6          10.2800    -2.7880     1.5730 ha         1 1U9       0.134000
     37 H18          6.5710    -4.9450     1.4780 ha         1 1U9       0.137000
     38 H19          7.7610    -7.0680     1.4890 ha         1 1U9       0.115000
     39 H5          12.4100    -4.0300     1.4340 ha         1 1U9       0.123000
     40 H4          13.5970    -6.1540     1.4320 ha         1 1U9       0.079000
     41 H20          9.8880    -8.3130     1.4840 ha         1 1U9       0.107000
     42 H3          14.2690    -9.5770     1.4520 hn         1 1U9       0.015333
     43 H2          14.2540    -8.1700     0.6230 hn         1 1U9       0.015333
     44 H1          10.9060    -9.7760     1.4980 hn         1 1U9       0.135000
     45 H23         14.2740    -8.1550     2.2570 hn         1 1U9       0.015333
@<TRIPOS>BOND
     1     1     2 1   
     2     1    25 1   
     3     2     3 1   
     4     2    26 1   
     5     2    27 1   
     6     3     4 1   
     7     3    28 1   
     8     3    29 1   
     9     4     5 1   
    10     4     8 1   
    11     5     6 1   
    12     5    30 1   
    13     6     7 1   
    14     6    31 1   
    15     7     9 1   
    16     7    32 1   
    17     8     9 1   
    18     8    33 1   
    19     9    10 1   
    20     9    34 1   
    21    10    11 1   
    22    10    34 1   
    23    11    12 1   
    24    11    35 1   
    25    12    13 1   
    26    12    14 1   
    27    12    35 1   
    28    13    17 1   
    29    13    36 1   
    30    14    15 1   
    31    14    37 1   
    32    15    16 1   
    33    15    38 1   
    34    16    17 1   
    35    16    20 1   
    36    17    18 1   
    37    18    19 1   
    38    18    39 1   
    39    19    21 1   
    40    19    40 1   
    41    20    21 1   
    42    20    41 1   
    43    21    22 1   
    44    22    23 1   
    45    22    24 1   
    46    23    42 1   
    47    23    43 1   
    48    23    45 1   
    49    24    44 1   
@<TRIPOS>SUBSTRUCTURE
     1 1U9         1 TEMP              0 ****  ****    0 ROOT
