@<TRIPOS>MOLECULE
1UA
   35    37     1     0     0
SMALL
bcc


@<TRIPOS>ATOM
      1 O17          0.1870    -0.6170    -0.1570 o          1 1UA      -0.627500
      2 C6           1.3830    -0.2870    -0.0760 c          1 1UA       0.714700
      3 C5           2.1790    -0.1140     1.1230 cc         1 1UA      -0.267400
      4 C4           3.5110     0.2600     1.0310 cd         1 1UA       0.179400
      5 C2           4.1290     0.3770     2.3980 c3         1 1UA      -0.035200
      6 C3           1.7400    -0.2930     2.5310 c3         1 1UA      -0.011200
      7 C1           2.9920     0.0210     3.3680 c3         1 1UA      -0.084400
      8 N19          2.0920    -0.0410    -1.2830 ns         1 1UA      -0.465400
      9 C7           3.4310     0.3310    -1.2690 cc         1 1UA       0.492800
     10 N18          4.1630     0.4900    -0.1590 nd         1 1UA      -0.652300
     11 S16          4.1390     0.5910    -2.8260 ss         1 1UA      -0.166300
     12 C8           5.8320     1.0490    -2.5030 c3         1 1UA       0.048000
     13 C9           6.4340     1.2700    -3.8340 ca         1 1UA      -0.106300
     14 C11          7.0580     0.2160    -4.5140 ca         1 1UA      -0.102000
     15 C13          7.6400     0.4290    -5.7610 ca         1 1UA      -0.134000
     16 C14          7.6130     1.7000    -6.3490 ca         1 1UA      -0.059300
     17 C15          8.2460     1.9290    -7.6670 c3         1 1UA      -0.058800
     18 C12          6.9920     2.7530    -5.6680 ca         1 1UA      -0.134000
     19 C10          6.4090     2.5420    -4.4210 ca         1 1UA      -0.102000
     20 H1           4.9920    -0.3280     2.5020 hc         1 1UA       0.067700
     21 H2           1.3820    -1.3390     2.7110 hc         1 1UA       0.060700
     22 H3           0.8980     0.4010     2.7810 hc         1 1UA       0.060700
     23 H4           3.2760    -0.8630     3.9890 hc         1 1UA       0.048700
     24 H5           1.6120    -0.1400    -2.1510 hn         1 1UA       0.341500
     25 H6           5.8700     1.9730    -1.8750 h1         1 1UA       0.091700
     26 H7           6.3540     0.2330    -1.9440 h1         1 1UA       0.091700
     27 H8           7.0860    -0.7870    -4.0610 ha         1 1UA       0.138000
     28 H9           8.1250    -0.4060    -6.2880 ha         1 1UA       0.136000
     29 H10          7.7200     2.7410    -8.2280 hc         1 1UA       0.048033
     30 H11          8.2280     1.0000    -8.2880 hc         1 1UA       0.048033
     31 H12          9.3140     2.2360    -7.5280 hc         1 1UA       0.048033
     32 H13          6.9640     3.7560    -6.1210 ha         1 1UA       0.136000
     33 H14          5.9240     3.3780    -3.8940 ha         1 1UA       0.138000
     34 H15          4.5070     1.4150     2.5720 hc         1 1UA       0.067700
     35 H16          2.7920     0.8760     4.0590 hc         1 1UA       0.048700
@<TRIPOS>BOND
     1     1     2 2   
     2     2     3 1   
     3     2     8 1   
     4     3     4 2   
     5     3     6 1   
     6     4     5 1   
     7     4    10 1   
     8     5     7 1   
     9     5    20 1   
    10     5    34 1   
    11     6     7 1   
    12     6    21 1   
    13     6    22 1   
    14     7    23 1   
    15     7    35 1   
    16     8     9 1   
    17     8    24 1   
    18     9    10 2   
    19     9    11 1   
    20    11    12 1   
    21    12    13 1   
    22    12    25 1   
    23    12    26 1   
    24    13    14 ar  
    25    13    19 ar  
    26    14    15 ar  
    27    14    27 1   
    28    15    16 ar  
    29    15    28 1   
    30    16    17 1   
    31    16    18 ar  
    32    17    29 1   
    33    17    30 1   
    34    17    31 1   
    35    18    19 ar  
    36    18    32 1   
    37    19    33 1   
@<TRIPOS>SUBSTRUCTURE
     1 1UA         1 TEMP              0 ****  ****    0 ROOT
