@<TRIPOS>MOLECULE
molecule
   35    37     1     0     0
SMALL
bcc


@<TRIPOS>ATOM
      1 O17          0.0000     0.0000     0.0000 o          1 1UA      -0.642500
      2 C6           1.2200     0.0000     0.0000 c          1 1UA       0.703700
      3 C5           1.9360     0.0000     1.2110 cc         1 1UA      -0.283400
      4 C4           3.2990    -0.0060     1.1750 cc         1 1UA       0.186400
      5 C2           3.8520    -0.0040     2.5840 c3         1 1UA      -0.028200
      6 C3           1.4510     0.0030     2.6430 c3         1 1UA      -0.008200
      7 C1           2.6720    -0.4350     3.4810 c3         1 1UA      -0.086400
      8 N19          1.9060    -0.0050    -1.1620 ns         1 1UA      -0.430400
      9 C7           3.2680    -0.0060    -1.1400 cd         1 1UA       0.513800
     10 N18          3.9310    -0.0110    -0.0000 nc         1 1UA      -0.680300
     11 S16          4.1590    -0.0130    -2.6590 ss         1 1UA      -0.184300
     12 C8           5.8560    -0.0110    -2.0290 c3         1 1UA       0.066000
     13 C9           6.8220    -0.0180    -3.1860 ca         1 1UA      -0.102300
     14 C11          7.2600    -1.2180    -3.7140 ca         1 1UA      -0.105000
     15 C13          8.1450    -1.2240    -4.7750 ca         1 1UA      -0.129500
     16 C14          8.5930    -0.0290    -5.3090 ca         1 1UA      -0.070300
     17 C15          9.5590    -0.0350    -6.4660 c3         1 1UA      -0.050800
     18 C12          8.1540     1.1710    -4.7810 ca         1 1UA      -0.129500
     19 C10          7.2650     1.1770    -3.7230 ca         1 1UA      -0.105000
     20 H1           4.6520    -0.7310     2.6610 hc         1 1UA       0.065200
     21 H2           0.6390    -0.7030     2.7650 hc         1 1UA       0.060200
     22 H3           1.1380     1.0000     2.9300 hc         1 1UA       0.060200
     23 H4           2.6970     0.1090     4.4170 hc         1 1UA       0.055700
     24 H5           1.4170    -0.0020    -2.0350 hn         1 1UA       0.345500
     25 H6           6.0170     0.8760    -1.4290 h1         1 1UA       0.088200
     26 H7           6.0160    -0.8930    -1.4200 h1         1 1UA       0.088200
     27 H8           6.9090    -2.1540    -3.2970 ha         1 1UA       0.136000
     28 H9           8.4880    -2.1640    -5.1890 ha         1 1UA       0.135000
     29 H10         10.3530     0.6780    -6.2770 hc         1 1UA       0.045700
     30 H11          9.0370     0.2390    -7.3740 hc         1 1UA       0.045700
     31 H12          9.9830    -1.0260    -6.5770 hc         1 1UA       0.045700
     32 H13          8.5030     2.1070    -5.2010 ha         1 1UA       0.135000
     33 H14          6.9210     2.1170    -3.3100 ha         1 1UA       0.136000
     34 H15          4.1640     0.9980     2.8510 hc         1 1UA       0.065200
     35 H16          2.6720    -1.5120     3.6040 hc         1 1UA       0.055700
@<TRIPOS>BOND
     1     5     7 1
     2     5     4 1
     3     7     6 1
     4     4    10 1
     5     4     3 2
     6     6     3 1
     7    10     9 2
     8     3     2 1
     9    12    13 1
    10    12    11 1
    11    14    13 ar
    12    14    15 ar
    13     9    11 1
    14     9     8 1
    15     2     8 1
    16     2     1 2
    17    13    19 ar
    18    15    16 ar
    19    19    18 ar
    20    16    18 ar
    21    16    17 1
    22     5    20 1
    23     6    21 1
    24     6    22 1
    25     7    23 1
    26     8    24 1
    27    12    25 1
    28    12    26 1
    29    14    27 1
    30    15    28 1
    31    17    29 1
    32    17    30 1
    33    17    31 1
    34    18    32 1
    35    19    33 1
    36     5    34 1
    37     7    35 1
@<TRIPOS>SUBSTRUCTURE
     1 1UA         1 TEMP              0 ****  ****    0 ROOT
