@<TRIPOS>MOLECULE
1UC
   19    18     1     0     0
SMALL
bcc


@<TRIPOS>ATOM
      1 O3          -0.1750     0.3990    -0.1990 o          1 1UC      -0.781800
      2 C6           0.9620    -0.0650     0.0290 c          1 1UC       0.959800
      3 O4           1.3760    -0.6430     1.0650 o          1 1UC      -0.781800
      4 C2           1.9700    -0.0830    -1.1600 ce         1 1UC      -0.097200
      5 C            2.7740     0.9250    -1.5380 cf         1 1UC      -0.149200
      6 C1           2.9150     2.3780    -1.0200 c          1 1UC       0.934800
      7 O1           2.3700     2.7180     0.0400 o          1 1UC      -0.779300
      8 O            3.6430     3.1240    -1.7620 o          1 1UC      -0.779300
      9 N            3.7290     0.6910    -2.6490 nz         1 1UC      -0.747400
     10 C3           1.9950    -1.3820    -1.8250 ce         1 1UC      -0.070000
     11 C4           2.1900    -2.5330    -1.1590 cf         1 1UC      -0.282200
     12 C5           2.1930    -3.8390    -1.8100 c          1 1UC       0.568100
     13 O2           2.4250    -4.0250    -3.0120 o          1 1UC      -0.583100
     14 H5           4.4680     0.0620    -2.3510 hn         1 1UC       0.432800
     15 H6           3.2590     0.3020    -3.4610 hn         1 1UC       0.432800
     16 H8           1.7810    -1.3940    -2.9100 ha         1 1UC       0.110000
     17 H10          2.3050    -2.5160    -0.0570 ha         1 1UC       0.191000
     18 H12          1.9800    -4.7020    -1.1360 h4         1 1UC      -0.009800
     19 HN3          4.1280     1.6370    -2.8740 hn         1 1UC       0.432800
@<TRIPOS>BOND
     1     1     2 1   
     2     2     3 1   
     3     2     4 1   
     4     4     5 2   
     5     4    10 1   
     6     5     6 1   
     7     5     9 1   
     8     6     7 1   
     9     6     8 1   
    10     9    14 1   
    11     9    15 1   
    12     9    19 1   
    13    10    11 2   
    14    10    16 1   
    15    11    12 1   
    16    11    17 1   
    17    12    13 2   
    18    12    18 1   
@<TRIPOS>SUBSTRUCTURE
     1 1UC         1 TEMP              0 ****  ****    0 ROOT
