@<TRIPOS>MOLECULE
molecule
   19    18     1     0     0
SMALL
bcc


@<TRIPOS>ATOM
      1 O3           0.0000     0.0000     0.0000 o          1 1UC      -0.791800
      2 C6           1.3480     0.0000     0.0000 c          1 1UC       0.903800
      3 O4           1.9560     0.0000     1.0530 o          1 1UC      -0.791800
      4 C2           2.0850    -0.0000    -1.2760 ce         1 1UC      -0.013200
      5 C            2.1770     1.1630    -2.0230 cf         1 1UC      -0.212200
      6 C1           1.6560     2.4400    -1.4760 c          1 1UC       0.881800
      7 O1           1.8350     3.5890    -2.1580 o          1 1UC      -0.772800
      8 O            1.0670     2.4500    -0.4140 o          1 1UC      -0.772800
      9 N            2.7500     1.1350    -3.2640 nz         1 1UC      -0.633400
     10 C3           2.7180    -1.2290    -1.7530 cf         1 1UC      -0.118000
     11 C4           2.5380    -2.3940    -1.0780 ce         1 1UC      -0.209200
     12 C5           3.2320    -3.5520    -1.4750 c          1 1UC       0.556100
     13 O2           3.0700    -4.5940    -0.8710 o          1 1UC      -0.531100
     14 H5           3.7350     0.9810    -3.1740 hn         1 1UC       0.422467
     15 H6           2.5910     2.0100    -3.7250 hn         1 1UC       0.422467
     16 H8           3.3960    -1.1930    -2.5970 ha         1 1UC       0.069000
     17 H10          1.9240    -2.4120    -0.1860 ha         1 1UC       0.206000
     18 H12          3.9290    -3.5090    -2.3030 h4         1 1UC      -0.035800
     19 HN3          2.3490     0.3910    -3.8000 hn         1 1UC       0.422467
@<TRIPOS>BOND
     1     3     2 1   
     2     2     1 1   
     3     2     4 1   
     4     7     6 1   
     5    12    11 1   
     6    12    13 2   
     7    11    10 2   
     8     4    10 1   
     9     4     5 2   
    10     6     5 1   
    11     6     8 1   
    12     5     9 1   
    13     9    14 1   
    14     9    15 1   
    15    10    16 1   
    16    11    17 1   
    17    12    18 1   
    18    19     9 1   
@<TRIPOS>SUBSTRUCTURE
     1 1UC         1 TEMP              0 ****  ****    0 ROOT
