@<TRIPOS>MOLECULE
1UC
   19    20     1     0     0
SMALL
bcc


@<TRIPOS>ATOM
      1 O3           0.0000     0.0000     0.0000 o          1 1UC      -0.493500
      2 C6           1.3480     0.0000     0.0000 c2         1 1UC       0.438000
      3 O4           1.9560     0.0000     1.0530 o          1 1UC      -0.493500
      4 C2           2.0850    -0.0000    -1.2760 c3         1 1UC       0.183000
      5 C            2.1770     1.1630    -2.0230 c2         1 1UC      -0.696000
      6 C1           1.6560     2.4400    -1.4760 c2         1 1UC       0.449000
      7 O1           1.8350     3.5890    -2.1580 o          1 1UC      -0.565000
      8 O            1.0670     2.4500    -0.4140 o          1 1UC      -0.565000
      9 N            2.7500     1.1350    -3.2640 nz         1 1UC       1.042000
     10 C3           2.7180    -1.2290    -1.7530 c2         1 1UC      -0.273000
     11 C4           2.5380    -2.3940    -1.0780 c2         1 1UC       0.039000
     12 C5           3.2320    -3.5520    -1.4750 c3         1 1UC       0.319000
     13 O2           3.0700    -4.5940    -0.8710 o          1 1UC      -0.417000
     14 H5           2.9230     2.0720    -3.5730 hn         1 1UC      -0.039333
     15 H6           2.1310     0.6820    -3.9070 hn         1 1UC      -0.039333
     16 H8           1.6860    -0.9890    -1.9770 DU         1 1UC       0.092000
     17 H10          2.1930    -3.0220    -1.8910 DU         1 1UC      -0.006000
     18 H12          3.9460    -3.5030    -2.2880 h1         1 1UC       0.065000
     19 HN3          3.6180     0.6400    -3.2200 hn         1 1UC      -0.039333
@<TRIPOS>BOND
     1     1     2 1   
     2     2     3 1   
     3     2     4 1   
     4     4     5 1   
     5     4    10 1   
     6     4    16 1   
     7     5     6 1   
     8     5     9 1   
     9     6     7 1   
    10     6     8 1   
    11     9    14 1   
    12     9    15 1   
    13     9    19 1   
    14    10    11 1   
    15    10    16 1   
    16    11    12 1   
    17    11    17 1   
    18    12    13 1   
    19    12    17 1   
    20    12    18 1   
@<TRIPOS>SUBSTRUCTURE
     1 1UC         1 TEMP              0 ****  ****    0 ROOT
