@<TRIPOS>MOLECULE
molecule
   54    57     1     0     0
SMALL
bcc


@<TRIPOS>ATOM
      1 C1           0.0000     0.0000     0.0000 ca         1 1UD      -0.180600
      2 C2           1.3940     0.0000     0.0000 ca         1 1UD      -0.036000
      3 C3           2.0730     0.0000     1.2000 ca         1 1UD      -0.080200
      4 C4           1.3690     0.0000     2.4230 ca         1 1UD       0.163400
      5 C5          -0.0260     0.0020     2.4280 ca         1 1UD       0.030700
      6 C6          -0.7780     0.0020     3.7340 c3         1 1UD      -0.033100
      7 C7          -1.0310     1.4450     4.1750 c3         1 1UD      -0.067400
      8 C8          -0.7180     0.0070     1.2230 ca         1 1UD       0.113400
      9 N9          -2.0750     0.0080     1.1910 nc         1 1UD      -0.530100
     10 C10         -2.7310     0.0140     0.0600 cd         1 1UD       0.431800
     11 N11         -4.1040     0.0160     0.1010 nz         1 1UD      -0.728600
     12 N12         -2.1170     0.0180    -1.1600 ns         1 1UD      -0.487400
     13 C13         -0.7670     0.0010    -1.2510 c          1 1UD       0.727100
     14 O14         -0.2090     0.0010    -2.3330 o          1 1UD      -0.566500
     15 N15          3.4220    -0.0010     1.5340 na         1 1UD      -0.286300
     16 N16          2.2960    -0.0000     3.4150 nd         1 1UD      -0.660100
     17 C17          3.5000    -0.0010     2.8970 cc         1 1UD       0.713700
     18 N18          4.6710    -0.0010     3.6200 nu         1 1UD      -0.858200
     19 C19          5.9620    -0.0030     2.9260 c3         1 1UD       0.214100
     20 C20         -1.5550     1.3950     7.7840 c3         1 1UD       0.302900
     21 O21         -0.5990     1.3420     8.8450 os         1 1UD      -0.412600
     22 C22         -0.2710     0.0170     9.2660 c3         1 1UD       0.129700
     23 O23         -0.9720     0.9040     6.5570 os         1 1UD      -0.427600
     24 C24         -1.7960     1.4460     5.5010 c3         1 1UD       0.140100
     25 C25         -2.1030     2.8940     5.9440 c3         1 1UD       0.116100
     26 O26         -3.4400     3.2520     5.5890 os         1 1UD      -0.407600
     27 C26         -3.6170     4.6450     5.3200 c3         1 1UD       0.131700
     28 C27         -1.9410     2.8600     7.4800 c3         1 1UD       0.102100
     29 O28         -3.1730     3.1960     8.1210 oh         1 1UD      -0.579800
     30 H1           1.9360     0.1290    -0.9290 ha         1 1UD       0.168000
     31 H2          -0.1930    -0.5090     4.4890 hc         1 1UD       0.075200
     32 H3          -1.7260    -0.5070     3.6050 hc         1 1UD       0.075200
     33 H4          -1.6170     1.9570     3.4210 hc         1 1UD       0.057200
     34 H5          -0.0840     1.9550     4.3040 hc         1 1UD       0.057200
     35 H6          -4.4570    -0.6810    -0.5250 hn         1 1UD       0.473133
     36 H7          -4.4450     0.9150    -0.1750 hn         1 1UD       0.473133
     37 H8          -2.6700     0.0230    -1.9940 hn         1 1UD       0.338500
     38 H9           4.1930    -0.0020     0.8950 hn         1 1UD       0.320700
     39 H11          4.6410    -0.0300     4.6200 hn         1 1UD       0.486800
     40 H12          6.0390     0.8830     2.3060 h1         1 1UD       0.050033
     41 H13          6.0360    -0.8860     2.3040 h1         1 1UD       0.050033
     42 H14          6.7640    -0.0050     3.6540 h1         1 1UD       0.050033
     43 H16          0.2490     0.0580    10.2160 h1         1 1UD       0.038367
     44 H17         -1.1790    -0.5620     9.3760 h1         1 1UD       0.038367
     45 H18          0.3670    -0.4500     8.5250 h1         1 1UD       0.038367
     46 H19         -2.7140     0.8780     5.4140 h1         1 1UD       0.062700
     47 H20         -1.3900     3.5820     5.5050 h1         1 1UD       0.058700
     48 H21         -3.0270     5.2260     6.0190 h1         1 1UD       0.033700
     49 H22         -4.6630     4.9040     5.4280 h1         1 1UD       0.033700
     50 H23         -3.2940     4.8610     4.3080 h1         1 1UD       0.033700
     51 H24         -1.1500     3.5310     7.7910 h1         1 1UD       0.067700
     52 H25         -2.9960     3.5530     8.9750 ho         1 1UD       0.413000
     53 H113        -4.4100    -0.1860     1.0320 hn         1 1UD       0.473133
     54 H15         -2.4380     0.8200     8.0350 h2         1 1UD       0.062700
@<TRIPOS>BOND
     1    19    18 1   
     2    22    21 1   
     3    21    20 1   
     4    18    17 1   
     5    20    28 1   
     6    20    23 1   
     7    28    29 1   
     8    28    25 1   
     9    17    16 2   
    10    17    15 1   
    11    23    24 1   
    12    16     4 1   
    13    25    24 1   
    14    25    26 1   
    15    15     3 1   
    16    24     7 1   
    17     7     6 1   
    18     4     3 ar  
    19     4     5 ar  
    20    26    27 1   
    21     6     5 1   
    22     3     2 ar  
    23     5     8 ar  
    24     2     1 ar  
    25     8     1 ar  
    26     8     9 1   
    27     1    13 1   
    28     9    10 2   
    29    13    14 2   
    30    13    12 1   
    31    10    12 1   
    32    10    11 1   
    33     2    30 1   
    34     6    31 1   
    35     6    32 1   
    36     7    33 1   
    37     7    34 1   
    38    11    35 1   
    39    11    36 1   
    40    12    37 1   
    41    15    38 1   
    42    18    39 1   
    43    19    40 1   
    44    19    41 1   
    45    19    42 1   
    46    20    54 1   
    47    22    43 1   
    48    22    44 1   
    49    22    45 1   
    50    24    46 1   
    51    25    47 1   
    52    27    48 1   
    53    27    49 1   
    54    27    50 1   
    55    28    51 1   
    56    29    52 1   
    57    53    11 1   
@<TRIPOS>SUBSTRUCTURE
     1 1UD         1 TEMP              0 ****  ****    0 ROOT
