@<TRIPOS>MOLECULE
1UD
   54    57     1     0     0
SMALL
bcc


@<TRIPOS>ATOM
      1 C1           0.0000     0.0000     0.0000 ca         1 1UD      -0.184600
      2 C2           1.3940     0.0000     0.0000 ca         1 1UD       0.017000
      3 C3           2.0730     0.0000     1.2000 ca         1 1UD      -0.255200
      4 C4           1.3690     0.0000     2.4230 ca         1 1UD       0.127400
      5 C5          -0.0260     0.0020     2.4280 ca         1 1UD       0.052700
      6 C6          -0.7780     0.0020     3.7340 c3         1 1UD       0.017900
      7 C7          -1.0310     1.4450     4.1750 c3         1 1UD      -0.020400
      8 C8          -0.7180     0.0070     1.2230 ca         1 1UD       0.033400
      9 N9          -2.0750     0.0080     1.1910 nc         1 1UD      -0.339100
     10 C10         -2.7310     0.0140     0.0600 cd         1 1UD      -0.036200
     11 N11         -4.1040     0.0160     0.1010 nz         1 1UD       0.220400
     12 N12         -2.1170     0.0180    -1.1600 ns         1 1UD      -0.029400
     13 C13         -0.7670     0.0010    -1.2510 c          1 1UD       0.636100
     14 O14         -0.2090     0.0010    -2.3330 o          1 1UD      -0.607500
     15 N15          3.4220    -0.0010     1.5340 na         1 1UD       0.235700
     16 N16          2.2960    -0.0000     3.4150 nc         1 1UD      -0.589100
     17 C17          3.5000    -0.0010     2.8970 cd         1 1UD       0.370700
     18 N18          4.6710    -0.0010     3.6200 nu         1 1UD      -0.432200
     19 C19          5.9620    -0.0030     2.9260 c3         1 1UD       0.186100
     20 C20         -1.5550     1.3950     7.7840 c3         1 1UD       0.355900
     21 O21         -0.5990     1.3420     8.8450 os         1 1UD      -0.406600
     22 C22         -0.2710     0.0170     9.2660 c3         1 1UD       0.256700
     23 O23         -0.9720     0.9040     6.5570 os         1 1UD      -0.417600
     24 C24         -1.7960     1.4460     5.5010 c3         1 1UD       0.175100
     25 C25         -2.1030     2.8940     5.9440 c3         1 1UD       0.138100
     26 O26         -3.4400     3.2520     5.5890 os         1 1UD      -0.393600
     27 C26         -3.6170     4.6450     5.3200 c3         1 1UD       0.254700
     28 C27         -1.9410     2.8600     7.4800 c3         1 1UD       0.133100
     29 O28         -3.1730     3.1960     8.1210 oh         1 1UD      -0.560800
     30 H1           1.9360     0.1290    -0.9290 ha         1 1UD       0.134000
     31 H2          -0.1930    -0.5090     4.4890 hc         1 1UD       0.042200
     32 H3          -1.7260    -0.5070     3.6050 hc         1 1UD       0.042200
     33 H4          -1.6170     1.9570     3.4210 hc         1 1UD       0.025700
     34 H5          -0.0840     1.9550     4.3040 hc         1 1UD       0.025700
     35 H6          -4.4570    -0.6810    -0.5250 hn         1 1UD       0.213133
     36 H7          -4.4450     0.9150    -0.1750 hn         1 1UD       0.213133
     37 H8          -2.6700     0.0230    -1.9940 hn         1 1UD       0.182500
     38 H9           4.1930    -0.0020     0.8950 hn         1 1UD       0.147700
     39 H11          4.6410    -0.0300     4.6200 hn         1 1UD       0.322800
     40 H12          6.0390     0.8830     2.3060 h1         1 1UD       0.014700
     41 H13          6.0360    -0.8860     2.3040 h1         1 1UD       0.014700
     42 H14          6.7640    -0.0050     3.6540 h1         1 1UD       0.014700
     43 H16          0.2490     0.0580    10.2160 h1         1 1UD      -0.006633
     44 H17         -1.1790    -0.5620     9.3760 h1         1 1UD      -0.006633
     45 H18          0.3670    -0.4500     8.5250 h1         1 1UD      -0.006633
     46 H19         -2.7140     0.8780     5.4140 h1         1 1UD       0.028700
     47 H20         -1.3900     3.5820     5.5050 h1         1 1UD       0.026700
     48 H21         -3.0270     5.2260     6.0190 h1         1 1UD      -0.010300
     49 H22         -4.6630     4.9040     5.4280 h1         1 1UD      -0.010300
     50 H23         -3.2940     4.8610     4.3080 h1         1 1UD      -0.010300
     51 H24         -1.1500     3.5310     7.7910 h1         1 1UD       0.029700
     52 H25         -2.9960     3.5530     8.9750 ho         1 1UD       0.398000
     53 H113        -4.4100    -0.1860     1.0320 hn         1 1UD       0.213133
     54 H15         -2.4380     0.8200     8.0350 h2         1 1UD       0.023700
@<TRIPOS>BOND
     1     1     2 ar  
     2     1     8 ar  
     3     1    13 1   
     4     2     3 ar  
     5     2    30 1   
     6     3     4 ar  
     7     3    15 1   
     8     4     5 ar  
     9     4    16 1   
    10     5     6 1   
    11     5     8 ar  
    12     6     7 1   
    13     6    31 1   
    14     6    32 1   
    15     7    24 1   
    16     7    33 1   
    17     7    34 1   
    18     8     9 1   
    19     9    10 2   
    20    10    11 1   
    21    10    12 1   
    22    11    35 1   
    23    11    36 1   
    24    11    53 1   
    25    12    13 1   
    26    12    37 1   
    27    13    14 2   
    28    15    17 1   
    29    15    38 1   
    30    16    17 2   
    31    17    18 1   
    32    18    19 1   
    33    18    39 1   
    34    19    40 1   
    35    19    41 1   
    36    19    42 1   
    37    20    21 1   
    38    20    23 1   
    39    20    28 1   
    40    20    54 1   
    41    21    22 1   
    42    22    43 1   
    43    22    44 1   
    44    22    45 1   
    45    23    24 1   
    46    24    25 1   
    47    24    46 1   
    48    25    26 1   
    49    25    28 1   
    50    25    47 1   
    51    26    27 1   
    52    27    48 1   
    53    27    49 1   
    54    27    50 1   
    55    28    29 1   
    56    28    51 1   
    57    29    52 1   
@<TRIPOS>SUBSTRUCTURE
     1 1UD         1 TEMP              0 ****  ****    0 ROOT
