@<TRIPOS>MOLECULE
1UD
   54    57     1     0     0
SMALL
bcc


@<TRIPOS>ATOM
      1 C1          -0.1110     0.3230     0.6210 ca         1 1UD      -0.161600
      2 C2           1.2010     0.1840     0.1750 ca         1 1UD      -0.053000
      3 C3           2.1640    -0.1320     1.1290 ca         1 1UD      -0.066200
      4 C4           1.8330    -0.3080     2.5400 ca         1 1UD       0.131400
      5 C5           0.5070    -0.1670     2.9830 ca         1 1UD       0.024700
      6 C6           0.1450    -0.3680     4.4150 c3         1 1UD      -0.035100
      7 C7          -0.4710     0.8600     5.0690 c3         1 1UD      -0.074400
      8 C8          -0.4610     0.1440     1.9980 ca         1 1UD       0.114400
      9 N9          -1.7910     0.2900     2.4040 nc         1 1UD      -0.534100
     10 C10         -2.6950     0.6350     1.5120 cd         1 1UD       0.499800
     11 N11         -4.0780     0.8390     2.0520 nz         1 1UD      -0.798600
     12 N12         -2.4790     0.8360     0.1430 ns         1 1UD      -0.512400
     13 C13         -1.1580     0.6700    -0.3570 c          1 1UD       0.728100
     14 O14         -0.9980     0.8390    -1.5710 o          1 1UD      -0.563500
     15 N15          3.5460    -0.3070     1.0240 na         1 1UD      -0.294300
     16 N16          2.9930    -0.6070     3.2660 nc         1 1UD      -0.613100
     17 C17          4.0090    -0.6360     2.3410 cd         1 1UD       0.652700
     18 N18          5.3330    -1.0070     2.5760 nu         1 1UD      -0.779200
     19 C19          5.7710    -1.1400     3.9400 c3         1 1UD       0.180100
     20 C20         -2.7630     0.6320     7.6940 c3         1 1UD       0.295900
     21 O21         -1.8670     1.1740     8.6390 os         1 1UD      -0.437600
     22 C22         -1.2250     0.1980     9.4530 c3         1 1UD       0.120700
     23 O23         -1.9490    -0.0500     6.7470 os         1 1UD      -0.432600
     24 C24         -1.9190     0.6390     5.4880 c3         1 1UD       0.153100
     25 C25         -2.6920     1.9670     5.6600 c3         1 1UD       0.128100
     26 O26         -3.5360     2.1350     4.5240 os         1 1UD      -0.476600
     27 C26         -4.2230     3.3840     4.5230 c3         1 1UD       0.117700
     28 C27         -3.4640     1.8190     6.9900 c3         1 1UD       0.091100
     29 O28         -4.8150     1.5190     6.7050 oh         1 1UD      -0.596800
     30 H1           1.4470     0.3250    -0.8900 ha         1 1UD       0.177000
     31 H2          -0.5660    -1.2380     4.4830 hc         1 1UD       0.081700
     32 H3           1.0600    -0.6630     4.9990 hc         1 1UD       0.081700
     33 H4           0.1250     1.1260     5.9830 hc         1 1UD       0.063200
     34 H5          -0.4290     1.7370     4.3720 hc         1 1UD       0.063200
     35 H6          -4.3770     1.8010     1.8670 hn         1 1UD       0.482467
     36 H7          -4.0620     0.7040     3.0870 hn         1 1UD       0.482467
     37 H8          -3.2080     1.0790    -0.4890 hn         1 1UD       0.345500
     38 H9           4.0480    -0.4190     0.1810 hn         1 1UD       0.321700
     39 H11          6.0000    -0.5940     1.9570 hn         1 1UD       0.424800
     40 H12          5.7410    -0.1670     4.5010 h1         1 1UD       0.061367
     41 H13          6.8270    -1.5230     3.9200 h1         1 1UD       0.061367
     42 H14          5.1200    -1.8830     4.4740 h1         1 1UD       0.061367
     43 H16         -1.9820    -0.3550    10.0610 h1         1 1UD       0.047033
     44 H17         -0.6410    -0.5130     8.8200 h1         1 1UD       0.047033
     45 H18         -0.5480     0.7980    10.1100 h1         1 1UD       0.047033
     46 H19         -2.4690    -0.0300     4.7710 h1         1 1UD       0.060700
     47 H20         -1.9910     2.8430     5.7330 h1         1 1UD       0.076700
     48 H21         -4.9110     3.4470     5.4020 h1         1 1UD       0.045033
     49 H22         -4.8060     3.3780     3.5680 h1         1 1UD       0.045033
     50 H23         -3.4940     4.2300     4.5310 h1         1 1UD       0.045033
     51 H24         -3.3870     2.7490     7.6140 h1         1 1UD       0.084700
     52 H25         -5.2690     1.4450     7.5550 ho         1 1UD       0.422000
     53 H113        -4.7240     0.1720     1.6230 hn         1 1UD       0.482467
     54 H15         -3.4650    -0.1200     8.1430 h2         1 1UD       0.081700
@<TRIPOS>BOND
     1     1     2 ar  
     2     1     8 ar  
     3     1    13 1   
     4     2     3 ar  
     5     2    30 1   
     6     3     4 ar  
     7     3    15 1   
     8     4     5 ar  
     9     4    16 1   
    10     5     6 1   
    11     5     8 ar  
    12     6     7 1   
    13     6    31 1   
    14     6    32 1   
    15     7    24 1   
    16     7    33 1   
    17     7    34 1   
    18     8     9 1   
    19     9    10 2   
    20    10    11 1   
    21    10    12 1   
    22    11    35 1   
    23    11    36 1   
    24    11    53 1   
    25    12    13 1   
    26    12    37 1   
    27    13    14 2   
    28    15    17 1   
    29    15    38 1   
    30    16    17 2   
    31    17    18 1   
    32    18    19 1   
    33    18    39 1   
    34    19    40 1   
    35    19    41 1   
    36    19    42 1   
    37    20    21 1   
    38    20    23 1   
    39    20    28 1   
    40    20    54 1   
    41    21    22 1   
    42    22    43 1   
    43    22    44 1   
    44    22    45 1   
    45    23    24 1   
    46    24    25 1   
    47    24    46 1   
    48    25    26 1   
    49    25    28 1   
    50    25    47 1   
    51    26    27 1   
    52    27    48 1   
    53    27    49 1   
    54    27    50 1   
    55    28    29 1   
    56    28    51 1   
    57    29    52 1   
@<TRIPOS>SUBSTRUCTURE
     1 1UD         1 TEMP              0 ****  ****    0 ROOT
