@<TRIPOS>MOLECULE
molecule
   35    38     1     0     0
SMALL
bcc


@<TRIPOS>ATOM
      1 C2           0.0000     0.0000     0.0000 c          1 1UE       0.720700
      2 C3           2.0350     0.0000     1.1790 cc         1 1UE       0.444800
      3 C4           0.0810    -0.0050     2.4200 cc         1 1UE       0.184500
      4 C9          -4.4910    -0.0230     1.6200 ca         1 1UE      -0.159000
      5 C8          -4.4980    -0.0260     3.0060 ca         1 1UE      -0.044000
      6 C7          -3.3140    -0.0230     3.7130 ca         1 1UE      -0.169000
      7 C5          -2.0960    -0.0160     3.0400 ca         1 1UE       0.019800
      8 N4          -0.7830    -0.0110     3.4830 na         1 1UE      -0.138400
      9 N3           1.4190     0.0000     2.3410 nc         1 1UE      -0.573300
     10 N2           3.4050    -0.0020     1.1540 nz         1 1UE      -0.724600
     11 N1           1.3520     0.0000     0.0000 ns         1 1UE      -0.460400
     12 O1          -0.6240    -0.0000    -1.0480 o          1 1UE      -0.553500
     13 C1          -0.6690    -0.0050     1.2390 cd         1 1UE      -0.164400
     14 C6          -2.0850    -0.0120     1.6380 ca         1 1UE      -0.058800
     15 C1'         -3.2910    -0.0160     0.9290 ca         1 1UE       0.077900
     16 S1          -3.2820    -0.0120    -0.8330 ss         1 1UE      -0.090800
     17 C2'         -4.9900    -0.1820    -1.2380 ca         1 1UE      -0.057100
     18 C3'         -5.7580     0.9450    -1.5000 ca         1 1UE      -0.078500
     19 C4'         -7.0950     0.8070    -1.8170 ca         1 1UE      -0.142000
     20 C5'         -7.6690    -0.4500    -1.8730 ca         1 1UE      -0.090000
     21 C6'         -6.9070    -1.5740    -1.6110 ca         1 1UE      -0.142000
     22 C7'         -5.5680    -1.4450    -1.3000 ca         1 1UE      -0.078500
     23 H1          -5.4280    -0.0260     1.0760 ha         1 1UE       0.165000
     24 H2          -5.4410    -0.0320     3.5380 ha         1 1UE       0.155000
     25 H3          -3.3320    -0.0250     4.7960 ha         1 1UE       0.146000
     26 H4          -0.5050    -0.0120     4.4440 hn         1 1UE       0.322700
     27 H5           3.7290    -0.8220     0.6800 hn         1 1UE       0.475467
     28 H6           3.7560     0.0020     2.0910 hn         1 1UE       0.475467
     29 H7           1.8520     0.0000    -0.8670 hn         1 1UE       0.344500
     30 H8          -5.2940     1.9230    -1.5270 ha         1 1UE       0.146000
     31 H9          -7.6960     1.6850    -2.0210 ha         1 1UE       0.142500
     32 H10         -8.7180    -0.5550    -2.1240 ha         1 1UE       0.142000
     33 H11         -7.3600    -2.5570    -1.6540 ha         1 1UE       0.142500
     34 H12         -5.0160    -2.3770    -1.3190 ha         1 1UE       0.146000
     35 H23          3.7310     0.7990     0.6510 hn         1 1UE       0.475467
@<TRIPOS>BOND
     1     5     6 ar
     2     5     4 ar
     3     6     7 ar
     4     4    15 ar
     5     7     8 1
     6     7    14 ar
     7     8     3 1
     8    15    14 ar
     9    15    16 1
    10    14    13 1
    11     3    13 2
    12     3     9 1
    13    16    17 1
    14    13     1 1
    15    18    17 ar
    16    18    19 ar
    17     9     2 2
    18    17    22 ar
    19    19    20 ar
    20     1    12 2
    21     1    11 1
    22     2    11 1
    23     2    10 1
    24    22    21 ar
    25    20    21 ar
    26     4    23 1
    27     5    24 1
    28     6    25 1
    29     8    26 1
    30    10    27 1
    31    10    28 1
    32    11    29 1
    33    18    30 1
    34    19    31 1
    35    20    32 1
    36    21    33 1
    37    22    34 1
    38    35    10 1
@<TRIPOS>SUBSTRUCTURE
     1 1UE         1 TEMP              0 ****  ****    0 ROOT
