@<TRIPOS>MOLECULE
1UE
   35    38     1     0     0
SMALL
bcc


@<TRIPOS>ATOM
      1 C2           1.2280    -0.2860     0.5040 c          1 1UE       0.742700
      2 C3           2.6420     0.9880     2.0580 cc         1 1UE       0.491800
      3 C4           0.4400     0.7420     2.6270 cd         1 1UE       0.146500
      4 C9          -3.4460    -1.2000     1.0510 ca         1 1UE      -0.168000
      5 C8          -3.9250    -0.6310     2.2380 ca         1 1UE      -0.048000
      6 C7          -3.0950     0.0830     3.0880 ca         1 1UE      -0.172000
      7 C5          -1.7510     0.2130     2.7070 ca         1 1UE       0.004800
      8 N4          -0.7230     0.8780     3.3840 na         1 1UE      -0.138400
      9 N3           1.6880     1.2570     2.9490 nd         1 1UE      -0.551300
     10 N2           4.0010     1.5340     2.3850 nz         1 1UE      -0.794600
     11 N1           2.5060     0.2650     0.8760 ns         1 1UE      -0.497400
     12 O1           1.2260    -0.9040    -0.5630 o          1 1UE      -0.537500
     13 C1           0.1570    -0.0240     1.4400 cc         1 1UE      -0.146400
     14 C6          -1.2350    -0.3680     1.4780 ca         1 1UE      -0.054800
     15 C1'         -2.1160    -1.0900     0.6420 ca         1 1UE       0.030900
     16 S1          -1.5210    -1.7610    -0.7790 ss         1 1UE      -0.009800
     17 C2'         -2.8260    -2.5520    -1.5340 ca         1 1UE      -0.102100
     18 C3'         -3.2860    -3.8000    -1.0960 ca         1 1UE      -0.070500
     19 C4'         -4.2580    -4.4860    -1.8210 ca         1 1UE      -0.142000
     20 C5'         -4.7750    -3.9320    -2.9930 ca         1 1UE      -0.083000
     21 C6'         -4.3210    -2.6890    -3.4360 ca         1 1UE      -0.142000
     22 C7'         -3.3550    -1.9990    -2.7060 ca         1 1UE      -0.070500
     23 H1          -4.1560    -1.7600     0.4170 ha         1 1UE       0.160000
     24 H2          -4.9890    -0.7570     2.4990 ha         1 1UE       0.154000
     25 H3          -3.4720     0.5290     4.0180 ha         1 1UE       0.154000
     26 H4          -0.8060     1.3590     4.2440 hn         1 1UE       0.329700
     27 H5           3.9620     2.0440     3.2810 hn         1 1UE       0.479467
     28 H6           4.2980     2.1790     1.6440 hn         1 1UE       0.479467
     29 H7           3.2720     0.1060     0.2570 hn         1 1UE       0.346500
     30 H8          -2.8710    -4.2440    -0.1770 ha         1 1UE       0.145000
     31 H9          -4.6120    -5.4670    -1.4710 ha         1 1UE       0.146500
     32 H10         -5.5390    -4.4770    -3.5690 ha         1 1UE       0.146000
     33 H11         -4.7260    -2.2520    -4.3620 ha         1 1UE       0.146500
     34 H12         -3.0000    -1.0160    -3.0560 ha         1 1UE       0.145000
     35 H23          4.6700     0.7600     2.4680 hn         1 1UE       0.479467
@<TRIPOS>BOND
     1     1    11 1   
     2     1    12 2   
     3     1    13 1   
     4     2     9 2   
     5     2    10 1   
     6     2    11 1   
     7     3     8 1   
     8     3     9 1   
     9     3    13 2   
    10     4     5 ar  
    11     4    15 ar  
    12     4    23 1   
    13     5     6 ar  
    14     5    24 1   
    15     6     7 ar  
    16     6    25 1   
    17     7     8 1   
    18     7    14 ar  
    19     8    26 1   
    20    10    27 1   
    21    10    28 1   
    22    10    35 1   
    23    11    29 1   
    24    13    14 1   
    25    14    15 ar  
    26    15    16 1   
    27    16    17 1   
    28    17    18 ar  
    29    17    22 ar  
    30    18    19 ar  
    31    18    30 1   
    32    19    20 ar  
    33    19    31 1   
    34    20    21 ar  
    35    20    32 1   
    36    21    22 ar  
    37    21    33 1   
    38    22    34 1   
@<TRIPOS>SUBSTRUCTURE
     1 1UE         1 TEMP              0 ****  ****    0 ROOT
