@<TRIPOS>MOLECULE
molecule
   49    51     1     0     0
SMALL
bcc


@<TRIPOS>ATOM
      1 OE1          0.0000     0.0000     0.0000 o          1 1UF      -0.828300
      2 CD           1.3420     0.0000     0.0000 c          1 1UF       0.888600
      3 OE2          1.9460     0.0000     1.0460 o          1 1UF      -0.828300
      4 CG           2.0950     0.0020    -1.3060 c3         1 1UF      -0.178400
      5 CB           3.5990     0.0020    -1.0260 c3         1 1UF      -0.063400
      6 CA           4.3650     0.0020    -2.3500 c3         1 1UF       0.011700
      7 C            5.8420     0.1270    -2.0780 c          1 1UF       0.889600
      8 OXT          6.5990    -0.7420    -2.4440 o          1 1UF      -0.807800
      9 O            6.3160     1.2010    -1.4290 o          1 1UF      -0.807800
     10 N            4.1040    -1.2490    -3.0670 ns         1 1UF      -0.515900
     11 CAV          4.2230    -1.2950    -4.4080 c          1 1UF       0.655700
     12 OAE          4.5490    -0.2990    -5.0250 o          1 1UF      -0.606100
     13 CBA          3.9610    -2.5540    -5.1280 ca         1 1UF      -0.095600
     14 CAZ          4.0860    -2.6050    -6.5220 ca         1 1UF       0.077400
     15 Cl1          4.5490    -1.1860    -7.4060 cl         1 1UF      -0.069400
     16 CAL          3.8380    -3.7850    -7.1880 ca         1 1UF      -0.160000
     17 CAK          3.5920    -3.7040    -4.4200 ca         1 1UF      -0.076000
     18 CAJ          3.3490    -4.8690    -5.0870 ca         1 1UF      -0.117000
     19 CAY          3.4670    -4.9210    -6.4740 ca         1 1UF       0.019900
     20 SAS          3.1510    -6.4310    -7.3260 ss         1 1UF      -0.146800
     21 CBB          3.4240    -5.9980    -9.0130 cc         1 1UF      -0.007100
     22 CBE          4.6910    -6.0810    -9.7430 cc         1 1UF      -0.191600
     23 CBC          6.0000    -6.4870    -9.4100 c          1 1UF       0.732100
     24 OAF          6.2660    -6.8810    -8.2860 o          1 1UF      -0.557500
     25 NAQ          6.9530    -6.4280   -10.3680 ns         1 1UF      -0.469400
     26 CAW          6.6400    -5.9850   -11.6190 cc         1 1UF       0.372800
     27 NAB          7.6270    -5.9370   -12.5720 nz         1 1UF      -0.704600
     28 NAO          5.4250    -5.6050   -11.9420 nd         1 1UF      -0.603100
     29 CBD          4.4270    -5.6350   -11.0470 cd         1 1UF       0.153100
     30 NAR          3.1050    -5.3070   -11.1050 na         1 1UF      -0.150100
     31 CAX          2.5060    -5.5320    -9.8840 cd         1 1UF       0.002400
     32 CAA          1.0520    -5.2910    -9.5710 c3         1 1UF      -0.039800
     33 H2           1.8330    -0.8820    -1.8750 hc         1 1UF       0.028200
     34 H3           1.8330     0.8870    -1.8730 hc         1 1UF       0.028200
     35 H4           3.8610     0.8860    -0.4570 hc         1 1UF       0.068200
     36 H5           3.8610    -0.8830    -0.4580 hc         1 1UF       0.068200
     37 H6           4.0380     0.8390    -2.9560 h1         1 1UF       0.079700
     38 H8           3.8750    -2.0790    -2.5560 hn         1 1UF       0.304500
     39 H9           3.9110    -3.8230    -8.2680 ha         1 1UF       0.124000
     40 H10          3.4980    -3.6680    -3.3410 ha         1 1UF       0.160000
     41 H11          3.0670    -5.7580    -4.5360 ha         1 1UF       0.137000
     42 H12          7.8900    -6.7110   -10.1580 hn         1 1UF       0.330500
     43 H13          7.9620    -6.8620   -12.7530 hn         1 1UF       0.454800
     44 H14          7.2570    -5.5450   -13.4160 hn         1 1UF       0.454800
     45 H15          2.6360    -4.9600   -11.9190 hn         1 1UF       0.310700
     46 H16          0.7770    -5.8460    -8.6820 hc         1 1UF       0.071700
     47 H17          0.4430    -5.6190   -10.4050 hc         1 1UF       0.071700
     48 H18          0.8900    -4.2330    -9.4000 hc         1 1UF       0.071700
     49 HAB3         8.3920    -5.3880   -12.2320 hn         1 1UF       0.454800
@<TRIPOS>BOND
     1    18    17 ar  
     2    18    19 ar  
     3     9     7 1   
     4    17    13 ar  
     5    20    19 1   
     6    20    21 1   
     7     4     2 1   
     8     4     5 1   
     9    19    16 ar  
    10    10     6 1   
    11    10    11 1   
    12     3     2 1   
    13     7     6 1   
    14     7     8 1   
    15     2     1 1   
    16     6     5 1   
    17    24    23 2   
    18    13    11 1   
    19    13    14 ar  
    20    11    12 2   
    21    21    22 1   
    22    21    31 2   
    23    16    14 ar  
    24    23    22 1   
    25    23    25 1   
    26    32    31 1   
    27    14    15 1   
    28    22    29 2   
    29    31    30 1   
    30    25    26 1   
    31    29    30 1   
    32    29    28 1   
    33    26    28 2   
    34    26    27 1   
    35     4    33 1   
    36     4    34 1   
    37     5    35 1   
    38     5    36 1   
    39     6    37 1   
    40    10    38 1   
    41    16    39 1   
    42    17    40 1   
    43    18    41 1   
    44    25    42 1   
    45    27    43 1   
    46    27    44 1   
    47    30    45 1   
    48    32    46 1   
    49    32    47 1   
    50    32    48 1   
    51    49    27 1   
@<TRIPOS>SUBSTRUCTURE
     1 1UF         1 TEMP              0 ****  ****    0 ROOT
