@<TRIPOS>MOLECULE
1UF
   50    52     1     0     0
SMALL
bcc


@<TRIPOS>ATOM
      1 OE1         3.8330   -0.6800    1.4700 o         1 1UF     -0.484000
      2 CD          3.9620   -1.1130    0.3260 c         1 1UF      0.624100
      3 OE2         4.5880   -2.3280    0.2680 oh        1 1UF     -0.583100
      4 CG          3.5050   -0.4650   -0.9460 c3        1 1UF     -0.181400
      5 CB          4.6840   -0.0020   -1.7760 c3        1 1UF     -0.091400
      6 CA          4.2400    0.3010   -3.2220 c3        1 1UF      0.070700
      7 C           5.2720    1.2550   -3.8120 c         1 1UF      0.616100
      8 OXT         6.3920    0.6690   -4.3170 oh        1 1UF     -0.610100
      9 O           5.2130    2.4850   -3.8520 o         1 1UF     -0.530000
     10 N           4.0470   -0.8770   -4.0260 n         1 1UF     -0.570900
     11 CAV         2.7830   -1.3250   -4.3730 c         1 1UF      0.684700
     12 OAE         1.7650   -0.8190   -3.8590 o         1 1UF     -0.598100
     13 CBA         2.7020   -2.4820   -5.3060 ca        1 1UF     -0.162600
     14 CAZ         3.3460   -2.5270   -6.5480 ca        1 1UF      0.064400
     15 CL1         4.2840   -1.2230   -7.1090 cl        1 1UF     -0.088400
     16 CAL         3.2140   -3.6460   -7.3750 ca        1 1UF     -0.138000
     17 CAK         1.9050   -3.5690   -4.9140 ca        1 1UF     -0.059000
     18 CAJ         1.7780   -4.6830   -5.7310 ca        1 1UF     -0.136000
     19 CAY         2.4350   -4.7350   -6.9730 ca        1 1UF      0.012900
     20 SAS         2.1790   -6.1460   -7.8620 ss        1 1UF     -0.008800
     21 CBB         3.0610   -6.0080   -9.2750 cc        1 1UF     -0.099100
     22 CBE         4.4650   -6.2290   -9.5010 cc        1 1UF     -0.234600
     23 CBC         5.5870   -6.5110   -8.6340 c         1 1UF      0.747100
     24 OAF         5.6000   -6.6220   -7.3970 o         1 1UF     -0.609500
     25 NAQ         6.8280   -6.6830   -9.3060 n         1 1UF     -0.507400
     26 CAW         6.9570   -6.5460  -10.7020 cc        1 1UF      0.682800
     27 NAB         8.2610   -6.6080  -11.2430 nh        1 1UF     -0.891800
     28 NAO         5.9210   -6.3050  -11.5390 nd        1 1UF     -0.681100
     29 CBD         4.6970   -6.1370  -10.9100 cd        1 1UF      0.198100
     30 NAR         3.4770   -5.8620  -11.5320 na        1 1UF     -0.164100
     31 CAX         2.4890   -5.7790  -10.5460 cd        1 1UF     -0.023600
     32 CAA         1.0750   -5.5040  -10.8660 c3        1 1UF     -0.054800
     33 H2          2.8730   -1.1930   -1.5240 hc        1 1UF      0.092200
     34 H3          2.8510    0.4110   -0.6880 hc        1 1UF      0.092200
     35 H4          5.4970   -0.7740   -1.7760 hc        1 1UF      0.067200
     36 H5          5.1090    0.9370   -1.3310 hc        1 1UF      0.067200
     37 H6          3.2580    0.8750   -3.1780 h1        1 1UF      0.123700
     38 H8          4.8510   -1.2680   -4.4610 hn        1 1UF      0.335500
     39 H9          3.7310   -3.6750   -8.3480 ha        1 1UF      0.160000
     40 H10         1.3730   -3.5210   -3.9500 ha        1 1UF      0.153000
     41 H11         1.1590   -5.5350   -5.4060 ha        1 1UF      0.150000
     42 H12         7.6350   -6.8270   -8.7390 hn        1 1UF      0.336500
     43 H13         8.2990   -6.6170  -12.2400 hn        1 1UF      0.421300
     44 H14         8.8770   -7.2560  -10.8050 hn        1 1UF      0.421300
     45 H15         3.3380   -5.7540  -12.5040 hn        1 1UF      0.314700
     46 H16         0.6380   -6.3310  -11.4800 hc        1 1UF      0.065367
     47 H17         0.9710   -4.5450  -11.4350 hc        1 1UF      0.065367
     48 H18         0.4930   -5.4210   -9.9120 hc        1 1UF      0.065367
     49 H21         4.6490   -2.6210   -0.6510 ho        1 1UF      0.425000
     50 HAB3        6.9920    1.3510   -4.6630 ho        1 1UF      0.451000
@<TRIPOS>BOND
     1    1    2 2   
     2    2    3 1   
     3    2    4 1   
     4    3   49 1   
     5    4    5 1   
     6    4   33 1   
     7    4   34 1   
     8    5    6 1   
     9    5   35 1   
    10    5   36 1   
    11    6    7 1   
    12    6   10 1   
    13    6   37 1   
    14    7    8 1   
    15    7    9 2   
    16    8   50 1   
    17   10   11 1   
    18   10   38 1   
    19   11   12 2   
    20   11   13 1   
    21   13   14 ar  
    22   13   17 ar  
    23   14   15 1   
    24   14   16 ar  
    25   16   19 ar  
    26   16   39 1   
    27   17   18 ar  
    28   17   40 1   
    29   18   19 ar  
    30   18   41 1   
    31   19   20 1   
    32   20   21 1   
    33   21   22 1   
    34   21   31 2   
    35   22   23 1   
    36   22   29 2   
    37   23   24 2   
    38   23   25 1   
    39   25   26 1   
    40   25   42 1   
    41   26   27 1   
    42   26   28 2   
    43   27   43 1   
    44   27   44 1   
    45   28   29 1   
    46   29   30 1   
    47   30   31 1   
    48   30   45 1   
    49   31   32 1   
    50   32   46 1   
    51   32   47 1   
    52   32   48 1   
@<TRIPOS>SUBSTRUCTURE
     1 1UF         1 TEMP              0 ****  ****    0 ROOT
