@<TRIPOS>MOLECULE
1UF
   50    52     1     0     0
SMALL
bcc


@<TRIPOS>ATOM
      1 OE1          2.5390     1.5700    -5.6110 oh         1 1UF      -0.591100
      2 CD           3.1990     0.9030    -4.6160 c          1 1UF       0.623100
      3 OE2          3.3450    -0.2980    -4.8400 o          1 1UF      -0.483000
      4 CG           3.6660     1.6570    -3.4070 c3         1 1UF      -0.179400
      5 CB           2.7450     1.4710    -2.2210 c3         1 1UF      -0.089400
      6 CA           1.3590     2.1280    -2.3500 c3         1 1UF       0.064700
      7 C            1.5560     3.6170    -2.6200 c          1 1UF       0.613100
      8 OXT          1.7560     3.9660    -3.9260 oh         1 1UF      -0.636100
      9 O            1.5840     4.5320    -1.7970 o          1 1UF      -0.526000
     10 N            0.4850     1.4900    -3.2930 ns         1 1UF      -0.570900
     11 CAV         -0.7420     0.9700    -2.9090 c          1 1UF       0.690700
     12 OAE         -1.0830     0.9520    -1.7100 o          1 1UF      -0.594100
     13 CBA         -1.5960     0.3830    -3.9790 ca         1 1UF      -0.156600
     14 CAZ         -2.0010     1.0900    -5.1170 ca         1 1UF       0.066400
     15 Cl1         -1.5180     2.7020    -5.3740 cl         1 1UF      -0.093400
     16 CAL         -2.8370     0.4910    -6.0640 ca         1 1UF      -0.139000
     17 CAK         -2.0450    -0.9340    -3.8000 ca         1 1UF      -0.055000
     18 CAJ         -2.8700    -1.5320    -4.7410 ca         1 1UF      -0.135000
     19 CAY         -3.2800    -0.8220    -5.8830 ca         1 1UF       0.011900
     20 SAS         -4.3130    -1.6650    -6.9200 ss         1 1UF      -0.012800
     21 CBB         -4.6580    -0.6460    -8.2010 cc         1 1UF      -0.097100
     22 CBE         -3.9110    -0.4320    -9.4120 cc         1 1UF      -0.231600
     23 CBC         -2.6270    -0.8940    -9.8920 c          1 1UF       0.746100
     24 OAF         -1.8130    -1.6400    -9.3260 o          1 1UF      -0.600500
     25 NAQ         -2.2760    -0.4260   -11.1880 ns         1 1UF      -0.507400
     26 CAW         -3.1020     0.4410   -11.9280 cc         1 1UF       0.681800
     27 NAB         -2.5910     0.9420   -13.1480 nv         1 1UF      -0.891800
     28 NAO         -4.3220     0.8620   -11.5190 nd         1 1UF      -0.683100
     29 CBD         -4.6880     0.4240   -10.2550 cd         1 1UF       0.195100
     30 NAR         -5.8750     0.7290    -9.5850 na         1 1UF      -0.165100
     31 CAX         -5.8580     0.0860    -8.3430 cd         1 1UF      -0.025600
     32 CAA         -6.9710     0.1950    -7.3810 c3         1 1UF      -0.053800
     33 H2           4.6850     1.2680    -3.1360 hc         1 1UF       0.078700
     34 H3           3.7690     2.7480    -3.6520 hc         1 1UF       0.078700
     35 H4           2.6050     0.3730    -2.0260 hc         1 1UF       0.080200
     36 H5           3.2390     1.9200    -1.3170 hc         1 1UF       0.080200
     37 H6           0.8670     2.0710    -1.3220 h1         1 1UF       0.132700
     38 H8           0.7260     1.5230    -4.2580 hn         1 1UF       0.337500
     39 H9          -3.1440     1.0540    -6.9600 ha         1 1UF       0.158000
     40 H10         -1.7380    -1.4860    -2.8970 ha         1 1UF       0.154000
     41 H11         -3.2070    -2.5700    -4.5960 ha         1 1UF       0.149000
     42 H12         -1.3710    -0.6700   -11.5280 hn         1 1UF       0.336500
     43 H13         -2.0360     0.3040   -13.6740 hn         1 1UF       0.420300
     44 H14         -3.2480     1.4570   -13.6940 hn         1 1UF       0.420300
     45 H15         -6.6040     1.2960    -9.9350 hn         1 1UF       0.313700
     46 H16         -7.1450     1.2620    -7.0910 hc         1 1UF       0.064700
     47 H17         -6.7190    -0.3920    -6.4620 hc         1 1UF       0.064700
     48 H18         -7.9170    -0.2140    -7.8180 hc         1 1UF       0.064700
     49 HAB3         1.8260     4.9330    -4.0020 ho         1 1UF       0.451000
     50 H21          2.4720     2.5140    -5.3970 ho         1 1UF       0.440000
@<TRIPOS>BOND
     1     1     2 1   
     2     1    50 1   
     3     2     3 2   
     4     2     4 1   
     5     4     5 1   
     6     4    33 1   
     7     4    34 1   
     8     5     6 1   
     9     5    35 1   
    10     5    36 1   
    11     6     7 1   
    12     6    10 1   
    13     6    37 1   
    14     7     8 1   
    15     7     9 2   
    16     8    49 1   
    17    10    11 1   
    18    10    38 1   
    19    11    12 2   
    20    11    13 1   
    21    13    14 ar  
    22    13    17 ar  
    23    14    15 1   
    24    14    16 ar  
    25    16    19 ar  
    26    16    39 1   
    27    17    18 ar  
    28    17    40 1   
    29    18    19 ar  
    30    18    41 1   
    31    19    20 1   
    32    20    21 1   
    33    21    22 1   
    34    21    31 2   
    35    22    23 1   
    36    22    29 2   
    37    23    24 2   
    38    23    25 1   
    39    25    26 1   
    40    25    42 1   
    41    26    27 1   
    42    26    28 2   
    43    27    43 1   
    44    27    44 1   
    45    28    29 1   
    46    29    30 1   
    47    30    31 1   
    48    30    45 1   
    49    31    32 1   
    50    32    46 1   
    51    32    47 1   
    52    32    48 1   
@<TRIPOS>SUBSTRUCTURE
     1 1UF         1 TEMP              0 ****  ****    0 ROOT
