@<TRIPOS>MOLECULE
molecule
   41    45     1     0     0
SMALL
bcc


@<TRIPOS>ATOM
      1 CAG          0.0000     0.0000     0.0000 ca         1 1UG      -0.054000
      2 CAE          1.3910     0.0000     0.0000 ca         1 1UG      -0.151000
      3 CAJ          2.0950     0.0000     1.1650 ca         1 1UG      -0.070000
      4 CAU          1.4160     0.0010     2.3960 ca         1 1UG      -0.050000
      5 CAI          2.1180     0.0020     3.6140 ca         1 1UG      -0.105000
      6 CAC          1.4280     0.0030     4.7880 ca         1 1UG      -0.126000
      7 CAD          0.0350     0.0030     4.8010 ca         1 1UG      -0.107000
      8 CAL         -0.6760     0.0030     3.6400 ca         1 1UG      -0.133000
      9 CAX         -0.0000     0.0020     2.4110 ca         1 1UG       0.005000
     10 CAR         -0.7050     0.0010     1.1870 ca         1 1UG      -0.054100
     11 SAP         -2.4660     0.0010     1.1760 ss         1 1UG      -0.074800
     12 CAS         -2.8650     1.6700     1.5740 ca         1 1UG       0.096900
     13 CAY         -4.1970     2.0440     1.7850 ca         1 1UG      -0.063800
     14 CAZ         -5.4760     1.3180     1.7530 cc         1 1UG      -0.164400
     15 CAT         -5.8400    -0.0190     1.5010 c          1 1UG       0.720700
     16 OAB         -4.9940    -0.8570     1.2380 o          1 1UG      -0.553500
     17 NAN         -7.1490    -0.3500     1.5580 ns         1 1UG      -0.462400
     18 CAQ         -8.0810     0.5990     1.8530 cd         1 1UG       0.446800
     19 NAA         -9.4030     0.2370     1.9040 nz         1 1UG      -0.724600
     20 NAM         -7.7530     1.8490     2.0900 nc         1 1UG      -0.572300
     21 CAW         -6.4740     2.2520     2.0510 cc         1 1UG       0.182500
     22 NAO         -5.8820     3.4700     2.2560 na         1 1UG      -0.138400
     23 CAV         -4.5100     3.3740     2.1020 ca         1 1UG       0.027800
     24 CAK         -3.4860     4.3110     2.2030 ca         1 1UG      -0.190000
     25 CAF         -2.1760     3.9320     1.9950 ca         1 1UG      -0.067000
     26 CAH         -1.8610     2.6190     1.6870 ca         1 1UG      -0.163000
     27 H1          -0.5360     0.0000    -0.9410 ha         1 1UG       0.141000
     28 H2           1.9230    -0.0000    -0.9440 ha         1 1UG       0.141000
     29 H3           3.1780     0.0000     1.1440 ha         1 1UG       0.142000
     30 H4           3.2010     0.0020     3.6190 ha         1 1UG       0.140000
     31 H5           1.9710     0.0030     5.7260 ha         1 1UG       0.137000
     32 H6          -0.4900     0.0040     5.7490 ha         1 1UG       0.132000
     33 H7          -1.7590     0.0020     3.6660 ha         1 1UG       0.141000
     34 H8          -7.4340    -1.2940     1.3830 hn         1 1UG       0.344500
     35 H9          -9.5350    -0.4440     2.6250 hn         1 1UG       0.475133
     36 H10         -9.9620     1.0440     2.1020 hn         1 1UG       0.475133
     37 H11         -6.3730     4.3120     2.4860 hn         1 1UG       0.322700
     38 H12         -3.6390     5.3640     2.4070 ha         1 1UG       0.146000
     39 H13         -1.4960     4.7720     2.0700 ha         1 1UG       0.154000
     40 H14         -0.9990     2.8720     1.0830 ha         1 1UG       0.176000
     41 HAA3        -9.6580    -0.2170     1.0500 hn         1 1UG       0.475133
@<TRIPOS>BOND
     1    24    25 ar
     2    24    23 ar
     3    22    23 1
     4    22    21 1
     5    25    26 ar
     6    23    13 ar
     7    21    20 1
     8    21    14 2
     9    20    18 2
    10    26    12 ar
    11    13    14 1
    12    13    12 ar
    13    14    15 1
    14    12    11 1
    15    18    19 1
    16    18    17 1
    17    15    17 1
    18    15    16 2
    19     1     2 ar
    20     1    10 ar
    21    11    10 1
    22     2     3 ar
    23    10     9 ar
    24     3     4 ar
    25     9     4 ar
    26     9     8 ar
    27     4     5 ar
    28     8     7 ar
    29     5     6 ar
    30     7     6 ar
    31     1    27 1
    32     2    28 1
    33     3    29 1
    34     5    30 1
    35     6    31 1
    36     7    32 1
    37     8    33 1
    38    17    34 1
    39    19    35 1
    40    19    36 1
    41    22    37 1
    42    24    38 1
    43    25    39 1
    44    26    40 1
    45    41    19 1
@<TRIPOS>SUBSTRUCTURE
     1 1UG         1 TEMP              0 ****  ****    0 ROOT
