@<TRIPOS>MOLECULE
1UG
   41    45     1     0     0
SMALL
bcc


@<TRIPOS>ATOM
      1 CAG          0.0000     0.0000     0.0000 ca         1 1UG      -0.015000
      2 CAE          1.3910     0.0000     0.0000 ca         1 1UG      -0.132000
      3 CAJ          2.0950     0.0000     1.1650 ca         1 1UG      -0.033000
      4 CAU          1.4160     0.0010     2.3960 ca         1 1UG      -0.054000
      5 CAI          2.1180     0.0020     3.6140 ca         1 1UG      -0.073000
      6 CAC          1.4280     0.0030     4.7880 ca         1 1UG      -0.100000
      7 CAD          0.0350     0.0030     4.8010 ca         1 1UG      -0.076000
      8 CAL         -0.6760     0.0030     3.6400 ca         1 1UG      -0.120000
      9 CAX         -0.0000     0.0020     2.4110 ca         1 1UG       0.013000
     10 CAR         -0.7050     0.0010     1.1870 ca         1 1UG      -0.012100
     11 SAP         -2.4660     0.0010     1.1760 ss         1 1UG      -0.214800
     12 CAS         -2.8650     1.6700     1.5740 ca         1 1UG       0.154900
     13 CAY         -4.1970     2.0440     1.7850 ca         1 1UG      -0.034800
     14 CAZ         -5.4760     1.3180     1.7530 cc         1 1UG      -0.154400
     15 CAT         -5.8400    -0.0190     1.5010 c          1 1UG       0.620700
     16 OAB         -4.9940    -0.8570     1.2380 o          1 1UG      -0.573500
     17 NAN         -7.1490    -0.3500     1.5580 ns         1 1UG       0.002600
     18 CAQ         -8.0810     0.5990     1.8530 cc         1 1UG      -0.023200
     19 NAA         -9.4030     0.2370     1.9040 nz         1 1UG       0.225400
     20 NAM         -7.7530     1.8490     2.0900 nd         1 1UG      -0.371300
     21 CAW         -6.4740     2.2520     2.0510 cd         1 1UG      -0.090500
     22 NAO         -5.8820     3.4700     2.2560 na         1 1UG       0.432600
     23 CAV         -4.5100     3.3740     2.1020 ca         1 1UG      -0.176200
     24 CAK         -3.4860     4.3110     2.2030 ca         1 1UG      -0.147000
     25 CAF         -2.1760     3.9320     1.9950 ca         1 1UG      -0.045000
     26 CAH         -1.8610     2.6190     1.6870 ca         1 1UG      -0.135000
     27 H1          -0.5360     0.0000    -0.9410 ha         1 1UG       0.114000
     28 H2           1.9230    -0.0000    -0.9440 ha         1 1UG       0.113000
     29 H3           3.1780     0.0000     1.1440 ha         1 1UG       0.111000
     30 H4           3.2010     0.0020     3.6190 ha         1 1UG       0.112000
     31 H5           1.9710     0.0030     5.7260 ha         1 1UG       0.108000
     32 H6          -0.4900     0.0040     5.7490 ha         1 1UG       0.102000
     33 H7          -1.7590     0.0020     3.6660 ha         1 1UG       0.124000
     34 H8          -7.4340    -1.2940     1.3830 hn         1 1UG       0.186500
     35 H9          -9.5350    -0.4440     2.6250 hn         1 1UG       0.213467
     36 H10         -9.9620     1.0440     2.1020 hn         1 1UG       0.213467
     37 H11         -6.3730     4.3120     2.4860 hn         1 1UG       0.129700
     38 H12         -3.6390     5.3640     2.4070 ha         1 1UG       0.120000
     39 H13         -1.4960     4.7720     2.0700 ha         1 1UG       0.119000
     40 H14         -0.9990     2.8720     1.0830 ha         1 1UG       0.151000
     41 HAA3        -9.6580    -0.2170     1.0500 hn         1 1UG       0.213467
@<TRIPOS>BOND
     1     1     2 ar  
     2     1    10 ar  
     3     1    27 1   
     4     2     3 ar  
     5     2    28 1   
     6     3     4 ar  
     7     3    29 1   
     8     4     5 ar  
     9     4     9 ar  
    10     5     6 ar  
    11     5    30 1   
    12     6     7 ar  
    13     6    31 1   
    14     7     8 ar  
    15     7    32 1   
    16     8     9 ar  
    17     8    33 1   
    18     9    10 ar  
    19    10    11 1   
    20    11    12 1   
    21    12    13 ar  
    22    12    26 ar  
    23    13    14 1   
    24    13    23 ar  
    25    14    15 1   
    26    14    21 2   
    27    15    16 2   
    28    15    17 1   
    29    17    18 1   
    30    17    34 1   
    31    18    19 1   
    32    18    20 2   
    33    19    35 1   
    34    19    36 1   
    35    19    41 1   
    36    20    21 1   
    37    21    22 1   
    38    22    23 1   
    39    22    37 1   
    40    23    24 ar  
    41    24    25 ar  
    42    24    38 1   
    43    25    26 ar  
    44    25    39 1   
    45    26    40 1   
@<TRIPOS>SUBSTRUCTURE
     1 1UG         1 TEMP              0 ****  ****    0 ROOT
