@<TRIPOS>MOLECULE
1UG
   41    45     1     0     0
SMALL
bcc


@<TRIPOS>ATOM
      1 CAG         -0.5800     0.8520     0.3520 ca         1 1UG      -0.042000
      2 CAE          0.6410     1.4040    -0.0940 ca         1 1UG      -0.158000
      3 CAJ          1.8020     1.1540     0.5960 ca         1 1UG      -0.062000
      4 CAU          1.7870     0.3450     1.7650 ca         1 1UG      -0.056000
      5 CAI          2.9820     0.0830     2.4900 ca         1 1UG      -0.106000
      6 CAC          2.9550    -0.6920     3.6230 ca         1 1UG      -0.126000
      7 CAD          1.7310    -1.2360     4.0820 ca         1 1UG      -0.104000
      8 CAL          0.5640    -0.9990     3.3990 ca         1 1UG      -0.138000
      9 CAX          0.5590    -0.2050     2.2190 ca         1 1UG       0.009000
     10 CAR         -0.6340     0.0620     1.4840 ca         1 1UG      -0.097100
     11 SAP         -2.1650    -0.4360     2.0530 ss         1 1UG      -0.013800
     12 CAS         -2.4700    -1.9360     1.3600 ca         1 1UG       0.028900
     13 CAY         -3.7030    -2.5750     1.6210 ca         1 1UG      -0.055800
     14 CAZ         -4.8730    -2.2600     2.3890 cc         1 1UG      -0.146400
     15 CAT         -5.2560    -1.1380     3.2170 c          1 1UG       0.742700
     16 OAB         -4.6450    -0.1040     3.4970 o          1 1UG      -0.537500
     17 NAN         -6.5620    -1.2440     3.8140 ns         1 1UG      -0.498400
     18 CAQ         -7.3550    -2.3640     3.5780 cc         1 1UG       0.490800
     19 NAA         -8.7050    -2.4100     4.2290 nz         1 1UG      -0.794600
     20 NAM         -7.0470    -3.4210     2.8260 nd         1 1UG      -0.550300
     21 CAW         -5.7940    -3.3570     2.2320 cd         1 1UG       0.145500
     22 NAO         -5.2310    -4.3250     1.4010 na         1 1UG      -0.138400
     23 CAV         -3.9630    -3.8720     1.0180 ca         1 1UG       0.004800
     24 CAK         -3.0310    -4.5110     0.1870 ca         1 1UG      -0.173000
     25 CAF         -1.8340    -3.8510    -0.0420 ca         1 1UG      -0.047000
     26 CAH         -1.5650    -2.6000     0.5290 ca         1 1UG      -0.165000
     27 H1          -1.5000     1.0670    -0.2180 ha         1 1UG       0.145000
     28 H2           0.6450     2.0340    -0.9970 ha         1 1UG       0.147000
     29 H3           2.7610     1.5770     0.2580 ha         1 1UG       0.145000
     30 H4           3.9250     0.5160     2.1250 ha         1 1UG       0.142000
     31 H5           3.8780    -0.8960     4.1870 ha         1 1UG       0.143000
     32 H6           1.7290    -1.8500     4.9960 ha         1 1UG       0.139000
     33 H7          -0.3930    -1.4110     3.7580 ha         1 1UG       0.143000
     34 H8          -6.8650    -0.4900     4.3920 hn         1 1UG       0.346500
     35 H9          -9.2670    -1.6140     3.9080 hn         1 1UG       0.479467
     36 H10         -8.5940    -2.3720     5.2490 hn         1 1UG       0.479467
     37 H11         -5.6520    -5.1780     1.1300 hn         1 1UG       0.329700
     38 H12         -3.2410    -5.4910    -0.2610 ha         1 1UG       0.154000
     39 H13         -1.0730    -4.3170    -0.6890 ha         1 1UG       0.154000
     40 H14         -0.5920    -2.1250     0.3110 ha         1 1UG       0.162000
     41 HAA3        -9.1830    -3.2870     3.9740 hn         1 1UG       0.479467
@<TRIPOS>BOND
     1     1     2 ar  
     2     1    10 ar  
     3     1    27 1   
     4     2     3 ar  
     5     2    28 1   
     6     3     4 ar  
     7     3    29 1   
     8     4     5 ar  
     9     4     9 ar  
    10     5     6 ar  
    11     5    30 1   
    12     6     7 ar  
    13     6    31 1   
    14     7     8 ar  
    15     7    32 1   
    16     8     9 ar  
    17     8    33 1   
    18     9    10 ar  
    19    10    11 1   
    20    11    12 1   
    21    12    13 ar  
    22    12    26 ar  
    23    13    14 1   
    24    13    23 ar  
    25    14    15 1   
    26    14    21 2   
    27    15    16 2   
    28    15    17 1   
    29    17    18 1   
    30    17    34 1   
    31    18    19 1   
    32    18    20 2   
    33    19    35 1   
    34    19    36 1   
    35    19    41 1   
    36    20    21 1   
    37    21    22 1   
    38    22    23 1   
    39    22    37 1   
    40    23    24 ar  
    41    24    25 ar  
    42    24    38 1   
    43    25    26 ar  
    44    25    39 1   
    45    26    40 1   
@<TRIPOS>SUBSTRUCTURE
     1 1UG         1 TEMP              0 ****  ****    0 ROOT
