@<TRIPOS>MOLECULE
1UH
   51    56     1     0     0
SMALL
bcc


@<TRIPOS>ATOM
      1 N19         0.0660   -0.3300    0.3570 nh        1 1UH     -0.918500
      2 C18         1.4610   -0.2900    0.2980 ca        1 1UH      0.649200
      3 C12         2.2310   -0.1190    1.4800 ca        1 1UH     -0.113200
      4 O11         1.7390    0.1160    2.7660 os        1 1UH     -0.192200
      5 N17         2.1310   -0.4930   -0.8790 nb        1 1UH     -0.711000
      6 C16         3.4740   -0.5520   -0.8620 ca        1 1UH      0.417200
      7 C15         4.3130   -0.4080    0.2680 ca        1 1UH     -0.104300
      8 C13         3.6530   -0.1820    1.4850 ca        1 1UH     -0.026800
      9 C14         4.0420    0.0190    2.8660 cc        1 1UH     -0.169200
     10 C10         2.8800    0.1950    3.5940 cd        1 1UH      0.101900
     11 C3          2.6710    0.4190    5.0070 ca        1 1UH     -0.009800
     12 C5          3.6180   -0.0890    5.9000 ca        1 1UH     -0.096000
     13 C6          3.4940    0.1050    7.2840 ca        1 1UH     -0.140000
     14 C4          2.4240    0.8120    7.8050 ca        1 1UH     -0.076000
     15 C1          1.5750    1.1380    5.5210 ca        1 1UH     -0.053100
     16 S9          0.2820    1.8850    4.7280 ss        1 1UH      0.064500
     17 C8         -0.4160    2.4530    6.1490 cc        1 1UH     -0.162400
     18 C7          0.2900    2.1010    7.2640 cd        1 1UH     -0.130200
     19 C2          1.4630    1.3330    6.9290 ca        1 1UH     -0.087800
     20 C20         5.7360   -0.4860    0.1410 cc        1 1UH     -0.200300
     21 C24         6.4790   -1.1970   -0.8230 cd        1 1UH     -0.132300
     22 N23         7.8290   -0.9610   -0.5450 na        1 1UH      0.091400
     23 N22         7.9860   -0.1540    0.5190 nd        1 1UH     -0.510800
     24 C21         6.7450    0.1560    0.9640 cc        1 1UH      0.307200
     25 C25         8.9420   -1.5210   -1.3110 c3        1 1UH      0.065000
     26 C30         8.9530   -3.0570   -1.2730 c3        1 1UH     -0.093400
     27 C29        10.1490   -3.5850   -2.0640 c3        1 1UH      0.163800
     28 N28        10.1950   -3.0880   -3.4240 n3        1 1UH     -0.824200
     29 C27        10.1230   -1.6430   -3.5180 c3        1 1UH      0.163800
     30 C26         8.9270   -1.0530   -2.7750 c3        1 1UH     -0.093400
     31 H1         -0.4130   -0.2110   -0.5070 hn        1 1UH      0.411800
     32 H2         -0.3180    0.1770    1.1230 hn        1 1UH      0.411800
     33 H3          3.9290   -0.7240   -1.8570 h4        1 1UH      0.021100
     34 H4          5.0620    0.0240    3.2420 ha        1 1UH      0.170000
     35 H5          4.4770   -0.6580    5.5100 ha        1 1UH      0.140000
     36 H6          4.2600   -0.3140    7.9540 ha        1 1UH      0.138000
     37 H7          2.3190    0.9690    8.8880 ha        1 1UH      0.139000
     38 H8         -1.3370    3.0340    6.1370 h4        1 1UH      0.172000
     39 H9          0.0310    2.3530    8.2950 ha        1 1UH      0.157000
     40 H10         6.1560   -1.8320   -1.6470 h4        1 1UH      0.180000
     41 H11         6.5820    0.8140    1.8180 h4        1 1UH      0.044100
     42 H12         9.9030   -1.1530   -0.8360 h1        1 1UH      0.085700
     43 H13         9.0350   -3.4200   -0.2170 hc        1 1UH      0.061450
     44 H14         8.0000   -3.4590   -1.7060 hc        1 1UH      0.061450
     45 H15        10.0740   -4.7080   -2.1200 h1        1 1UH      0.034200
     46 H16        11.0890   -3.3350   -1.4870 h1        1 1UH      0.034200
     47 H17        11.0200   -3.4230   -3.8860 hn        1 1UH      0.368800
     48 H19        10.0310   -1.3830   -4.6110 h1        1 1UH      0.034200
     49 H20        11.0600   -1.1450   -3.1270 h1        1 1UH      0.034200
     50 H21         8.9890    0.0640   -2.8270 hc        1 1UH      0.061450
     51 H22         7.9730   -1.3720   -3.2700 hc        1 1UH      0.061450
@<TRIPOS>BOND
     1    1    2 1
     2    1   31 1
     3    1   32 1
     4    2    3 ar
     5    2    5 ar
     6    3    4 1
     7    3    8 ar
     8    4   10 1
     9    5    6 ar
    10    6    7 ar
    11    6   33 1
    12    7    8 ar
    13    7   20 1
    14    8    9 1
    15    9   10 2
    16    9   34 1
    17   10   11 1
    18   11   12 ar
    19   11   15 ar
    20   12   13 ar
    21   12   35 1
    22   13   14 ar
    23   13   36 1
    24   14   19 ar
    25   14   37 1
    26   15   16 1
    27   15   19 ar
    28   16   17 1
    29   17   18 2
    30   17   38 1
    31   18   19 1
    32   18   39 1
    33   20   21 2
    34   20   24 1
    35   21   22 1
    36   21   40 1
    37   22   23 1
    38   22   25 1
    39   23   24 2
    40   24   41 1
    41   25   26 1
    42   25   30 1
    43   25   42 1
    44   26   27 1
    45   26   43 1
    46   26   44 1
    47   27   28 1
    48   27   45 1
    49   27   46 1
    50   28   29 1
    51   28   47 1
    52   29   30 1
    53   29   48 1
    54   29   49 1
    55   30   50 1
    56   30   51 1
@<TRIPOS>SUBSTRUCTURE
     1 1UH         1 TEMP              0 ****  ****    0 ROOT
