@<TRIPOS>MOLECULE
1UJ
   27    28     1     0     0
SMALL
bcc


@<TRIPOS>ATOM
      1 O2           0.0000     0.0000     0.0000 o          1 1UJ      -0.560100
      2 C7           1.2120     0.0000     0.0000 c          1 1UJ       0.536100
      3 C8           1.9660     0.0000     1.3060 c3         1 1UJ      -0.065100
      4 N1           1.8870    -0.0060    -1.1670 ns         1 1UJ      -0.004400
      5 C6           1.1950    -0.0110    -2.3650 cc         1 1UJ       0.316800
      6 N           -0.0900    -0.0120    -2.4750 nd         1 1UJ      -0.450100
      7 S            1.9420    -0.0110    -3.9560 ss         1 1UJ      -0.226100
      8 C9           0.3520    -0.0200    -4.7150 ca         1 1UJ      -0.050100
      9 C5          -0.6200    -0.0180    -3.7040 ca         1 1UJ       0.128400
     10 C4          -1.9850    -0.0230    -4.0770 ca         1 1UJ      -0.068000
     11 C3          -2.3470    -0.0300    -5.3830 ca         1 1UJ      -0.053000
     12 C10         -0.0240    -0.0240    -6.0510 ca         1 1UJ       0.031000
     13 C2          -1.3750    -0.0340    -6.3940 ca         1 1UJ      -0.156600
     14 C1          -1.7790    -0.0390    -7.8110 c          1 1UJ       0.722700
     15 O1          -0.9340    -0.0340    -8.6840 o          1 1UJ      -0.590000
     16 O           -3.0860    -0.0480    -8.1390 os         1 1UJ      -0.414900
     17 C           -3.4110    -0.0520    -9.5540 c3         1 1UJ       0.271700
     18 H1           1.2620    -0.0070     2.1290 hc         1 1UJ       0.025700
     19 H2           2.5840     0.8880     1.3660 hc         1 1UJ       0.025700
     20 H3           2.5940    -0.8810     1.3600 hc         1 1UJ       0.025700
     21 H4           2.8870     0.0200    -1.1670 hn         1 1UJ       0.175500
     22 H5          -2.7490    -0.0200    -3.3090 ha         1 1UJ       0.123000
     23 H6          -3.3980    -0.0380    -5.6490 ha         1 1UJ       0.120000
     24 H7           0.7330    -0.0260    -6.8260 ha         1 1UJ       0.132000
     25 H8          -2.9890    -0.9340   -10.0200 h1         1 1UJ       0.001367
     26 H9          -3.0010     0.8350   -10.0220 h1         1 1UJ       0.001367
     27 H10         -4.4880    -0.0600    -9.6770 h1         1 1UJ       0.001367
@<TRIPOS>BOND
     1     1     2 2   
     2     2     3 1   
     3     2     4 1   
     4     3    18 1   
     5     3    19 1   
     6     3    20 1   
     7     4     5 1   
     8     4    21 1   
     9     5     6 2   
    10     5     7 1   
    11     6     9 1   
    12     7     8 1   
    13     8     9 ar  
    14     8    12 ar  
    15     9    10 ar  
    16    10    11 ar  
    17    10    22 1   
    18    11    13 ar  
    19    11    23 1   
    20    12    13 ar  
    21    12    24 1   
    22    13    14 1   
    23    14    15 2   
    24    14    16 1   
    25    16    17 1   
    26    17    25 1   
    27    17    26 1   
    28    17    27 1   
@<TRIPOS>SUBSTRUCTURE
     1 1UJ         1 TEMP              0 ****  ****    0 ROOT
