@<TRIPOS>MOLECULE
1UJ
   27    28     1     0     0
SMALL
bcc


@<TRIPOS>ATOM
      1 O2           0.0620    -0.4070    -0.1480 o          1 1UJ      -0.572100
      2 C7           1.2620    -0.1020    -0.0290 c          1 1UJ       0.662100
      3 C8           1.9110     0.1320     1.3100 c3         1 1UJ      -0.172100
      4 N1           2.0760     0.0400    -1.1520 ns         1 1UJ      -0.465400
      5 C6           1.6280    -0.1420    -2.4570 cc         1 1UJ       0.415800
      6 N            2.4320    -0.0010    -3.5290 nd         1 1UJ      -0.597100
      7 S           -0.0300    -0.5740    -2.8170 ss         1 1UJ       0.098900
      8 C9           0.3140    -0.5780    -4.4660 ca         1 1UJ      -0.172100
      9 C5           1.6940    -0.2470    -4.6870 ca         1 1UJ       0.142400
     10 C4           2.1990    -0.1930    -6.0050 ca         1 1UJ      -0.106000
     11 C3           1.3500    -0.4610    -7.0610 ca         1 1UJ      -0.074000
     12 C10         -0.5240    -0.8450    -5.5480 ca         1 1UJ      -0.010000
     13 C2          -0.0070    -0.7860    -6.8380 ca         1 1UJ      -0.142600
     14 C1          -0.8490    -1.0590    -8.0100 c          1 1UJ       0.646700
     15 O1          -0.5250    -1.0430    -9.2020 o          1 1UJ      -0.544000
     16 O           -2.1530    -1.3670    -7.7110 os         1 1UJ      -0.441900
     17 C           -3.0110    -1.6410    -8.8200 c3         1 1UJ       0.128700
     18 H1           2.3080     1.1740     1.3760 hc         1 1UJ       0.076367
     19 H2           1.1430    -0.0170     2.1080 hc         1 1UJ       0.076367
     20 H3           2.7480    -0.5900     1.4710 hc         1 1UJ       0.076367
     21 H4           3.0350     0.2850    -1.0240 hn         1 1UJ       0.341500
     22 H5           3.2560     0.0610    -6.1780 ha         1 1UJ       0.156000
     23 H6           1.7190    -0.4250    -8.1000 ha         1 1UJ       0.160000
     24 H7          -1.5850    -1.1000    -5.3880 ha         1 1UJ       0.160000
     25 H8          -2.6270    -2.5200    -9.3910 h1         1 1UJ       0.051700
     26 H9          -3.0690    -0.7470    -9.4860 h1         1 1UJ       0.051700
     27 H10         -3.9970    -1.8600    -8.3410 h1         1 1UJ       0.051700
@<TRIPOS>BOND
     1     1     2 2   
     2     2     3 1   
     3     2     4 1   
     4     3    18 1   
     5     3    19 1   
     6     3    20 1   
     7     4     5 1   
     8     4    21 1   
     9     5     6 2   
    10     5     7 1   
    11     6     9 1   
    12     7     8 1   
    13     8     9 ar  
    14     8    12 ar  
    15     9    10 ar  
    16    10    11 ar  
    17    10    22 1   
    18    11    13 ar  
    19    11    23 1   
    20    12    13 ar  
    21    12    24 1   
    22    13    14 1   
    23    14    15 2   
    24    14    16 1   
    25    16    17 1   
    26    17    25 1   
    27    17    26 1   
    28    17    27 1   
@<TRIPOS>SUBSTRUCTURE
     1 1UJ         1 TEMP              0 ****  ****    0 ROOT
