@<TRIPOS>MOLECULE
molecule
   27    28     1     0     0
SMALL
bcc


@<TRIPOS>ATOM
      1 O2           0.0000     0.0000     0.0000 o          1 1UJ      -0.519100
      2 C7           1.2120     0.0000     0.0000 c          1 1UJ       0.644100
      3 C8           1.9660     0.0000     1.3060 c3         1 1UJ      -0.169100
      4 N1           1.8870    -0.0060    -1.1670 ns         1 1UJ      -0.461400
      5 C6           1.1950    -0.0110    -2.3650 cc         1 1UJ       0.501800
      6 N           -0.0900    -0.0120    -2.4750 nd         1 1UJ      -0.592100
      7 S            1.9420    -0.0110    -3.9560 ss         1 1UJ      -0.148100
      8 C9           0.3520    -0.0200    -4.7150 ca         1 1UJ      -0.083100
      9 C5          -0.6200    -0.0180    -3.7040 ca         1 1UJ       0.182400
     10 C4          -1.9850    -0.0230    -4.0770 ca         1 1UJ      -0.098000
     11 C3          -2.3470    -0.0300    -5.3830 ca         1 1UJ      -0.079000
     12 C10         -0.0240    -0.0240    -6.0510 ca         1 1UJ      -0.011000
     13 C2          -1.3750    -0.0340    -6.3940 ca         1 1UJ      -0.140600
     14 C1          -1.7790    -0.0390    -7.8110 c          1 1UJ       0.652700
     15 O1          -0.9340    -0.0340    -8.6840 o          1 1UJ      -0.552000
     16 O           -3.0860    -0.0480    -8.1390 os         1 1UJ      -0.427900
     17 C           -3.4110    -0.0520    -9.5540 c3         1 1UJ       0.141700
     18 H1           1.2620    -0.0070     2.1290 hc         1 1UJ       0.065700
     19 H2           2.5840     0.8880     1.3660 hc         1 1UJ       0.065700
     20 H3           2.5940    -0.8810     1.3600 hc         1 1UJ       0.065700
     21 H4           2.8870     0.0200    -1.1670 hn         1 1UJ       0.338500
     22 H5          -2.7490    -0.0200    -3.3090 ha         1 1UJ       0.156000
     23 H6          -3.3980    -0.0380    -5.6490 ha         1 1UJ       0.155000
     24 H7           0.7330    -0.0260    -6.8260 ha         1 1UJ       0.160000
     25 H8          -2.9890    -0.9340   -10.0200 h1         1 1UJ       0.049700
     26 H9          -3.0010     0.8350   -10.0220 h1         1 1UJ       0.049700
     27 H10         -4.4880    -0.0600    -9.6770 h1         1 1UJ       0.049700
@<TRIPOS>BOND
     1    17    16 1   
     2    16    14 1   
     3    14    15 2   
     4    14    13 1   
     5    12    13 ar  
     6    12     8 ar  
     7     7     8 1   
     8     7     5 1   
     9     1     2 2   
    10    13    11 ar  
    11     8     9 ar  
    12     2     3 1   
    13     2     4 1   
    14     5     4 1   
    15     5     6 2   
    16     9     6 1   
    17     9    10 ar  
    18    11    10 ar  
    19     3    18 1   
    20     3    19 1   
    21     3    20 1   
    22     4    21 1   
    23    10    22 1   
    24    11    23 1   
    25    12    24 1   
    26    17    25 1   
    27    17    26 1   
    28    17    27 1   
@<TRIPOS>SUBSTRUCTURE
     1 1UJ         1 TEMP              0 ****  ****    0 ROOT
