@<TRIPOS>MOLECULE
1UK
   36    38     1     0     0
SMALL
bcc


@<TRIPOS>ATOM
      1 F2          -0.0070     0.0680     0.1400 f          1 1UK      -0.239967
      2 C14          1.2970     0.1210    -0.2840 c3         1 1UK       0.700200
      3 F            1.9850     0.5980     0.8100 f          1 1UK      -0.239967
      4 F1           1.3220     1.1840    -1.1590 f          1 1UK      -0.239967
      5 C12          1.8450    -1.1720    -0.8520 ca         1 1UK      -0.382600
      6 C11          3.1970    -1.2480    -1.3230 ca         1 1UK       0.735200
      7 N4           4.0230    -0.1540    -1.2770 nv         1 1UK      -0.966500
      8 N3           3.6960    -2.4330    -1.8410 nb         1 1UK      -0.736000
      9 C10          2.8850    -3.4860    -1.8880 ca         1 1UK       0.491200
     10 C13          1.0300    -2.3030    -0.9230 ca         1 1UK       0.008000
     11 C9           1.5360    -3.4940    -1.4460 ca         1 1UK      -0.220300
     12 C5           0.7300    -4.6990    -1.5410 cc         1 1UK      -0.067000
     13 C4          -0.1410    -5.0380    -0.5190 cd         1 1UK      -0.057300
     14 C6           0.8340    -5.5420    -2.6940 cc         1 1UK      -0.112000
     15 C7           0.0870    -6.6810    -2.8090 cd         1 1UK      -0.098000
     16 C8          -0.8170    -7.0380    -1.7550 cd         1 1UK      -0.018300
     17 N1          -0.9030    -6.1740    -0.6110 na         1 1UK       0.023700
     18 C3          -1.8370    -6.7320     0.2570 cd         1 1UK      -0.230100
     19 N2          -1.6570    -8.1020    -1.6290 nc         1 1UK      -0.316600
     20 C2          -2.2950    -7.9220    -0.3820 cc         1 1UK       0.190200
     21 N           -3.2420    -8.8180     0.1140 ns         1 1UK      -0.454100
     22 C1          -3.8900    -8.6750     1.3340 c          1 1UK       0.667100
     23 O           -3.6680    -7.7140     2.0940 o          1 1UK      -0.595100
     24 C           -4.8840    -9.7540     1.6910 c3         1 1UK      -0.175100
     25 H1           3.6910     0.6950    -0.8930 hn         1 1UK       0.451300
     26 H2           4.9600    -0.2140    -1.5920 hn         1 1UK       0.451300
     27 H3           3.3380    -4.4070    -2.3050 h4         1 1UK       0.032100
     28 H4          -0.0140    -2.2460    -0.5710 ha         1 1UK       0.157000
     29 H5          -0.2610    -4.4330     0.3970 h4         1 1UK       0.170000
     30 H6           1.5260    -5.2460    -3.4980 ha         1 1UK       0.144000
     31 H7           0.1450    -7.3430    -3.6850 ha         1 1UK       0.165000
     32 H8          -2.1150    -6.2970     1.2170 h4         1 1UK       0.218000
     33 H9          -3.4580    -9.6050    -0.4560 hn         1 1UK       0.333500
     34 H10         -4.3810   -10.7490     1.7460 hc         1 1UK       0.070367
     35 H11         -5.7040    -9.7990     0.9330 hc         1 1UK       0.070367
     36 H12         -5.3250    -9.5140     2.6890 hc         1 1UK       0.070367
@<TRIPOS>BOND
     1     1     2 1   
     2     2     3 1   
     3     2     4 1   
     4     2     5 1   
     5     5     6 ar  
     6     5    10 ar  
     7     6     7 1   
     8     6     8 ar  
     9     7    25 1   
    10     7    26 1   
    11     8     9 ar  
    12     9    11 ar  
    13     9    27 1   
    14    10    11 ar  
    15    10    28 1   
    16    11    12 1   
    17    12    13 2   
    18    12    14 1   
    19    13    17 1   
    20    13    29 1   
    21    14    15 2   
    22    14    30 1   
    23    15    16 1   
    24    15    31 1   
    25    16    17 1   
    26    16    19 2   
    27    17    18 1   
    28    18    20 2   
    29    18    32 1   
    30    19    20 1   
    31    20    21 1   
    32    21    22 1   
    33    21    33 1   
    34    22    23 2   
    35    22    24 1   
    36    24    34 1   
    37    24    35 1   
    38    24    36 1   
@<TRIPOS>SUBSTRUCTURE
     1 1UK         1 TEMP              0 ****  ****    0 ROOT
