@<TRIPOS>MOLECULE
molecule
   36    38     1     0     0
SMALL
bcc


@<TRIPOS>ATOM
      1 F2           0.0000     0.0000     0.0000 f          1 1UK      -0.222300
      2 C14          1.3990     0.0000     0.0000 c3         1 1UK       0.689200
      3 F            1.8650     0.0000     1.3200 f          1 1UK      -0.222300
      4 F1           1.8650    -1.1430    -0.6590 f          1 1UK      -0.222300
      5 C12          1.9010     1.2300    -0.7100 ca         1 1UK      -0.314600
      6 C11          3.2680     1.4580    -0.8410 ca         1 1UK       0.732200
      7 N4           4.1710     0.5430    -0.3120 nv         1 1UK      -1.085500
      8 N3           3.7210     2.5360    -1.4640 nb         1 1UK      -0.708000
      9 C10          2.9030     3.4310    -1.9820 ca         1 1UK       0.468200
     10 C13          1.0120     2.1420    -1.2430 ca         1 1UK      -0.030000
     11 C9           1.5240     3.2720    -1.8890 ca         1 1UK      -0.178300
     12 C5           0.6080     4.2810    -2.4780 cc         1 1UK      -0.085000
     13 C4           0.5780     5.5460    -1.9780 cd         1 1UK      -0.054300
     14 C6          -0.2270     3.9290    -3.5640 cc         1 1UK      -0.116000
     15 C7          -1.0610     4.8590    -4.0970 cd         1 1UK      -0.087000
     16 C8          -1.0820     6.1630    -3.5600 cd         1 1UK      -0.012300
     17 N1          -0.2590     6.4810    -2.5110 na         1 1UK       0.047700
     18 C3          -0.4880     7.7980    -2.2050 cc         1 1UK      -0.247100
     19 N2          -1.7820     7.2430    -3.8790 nc         1 1UK      -0.347600
     20 C2          -1.4350     8.2480    -3.0660 cd         1 1UK       0.214200
     21 N           -1.9620     9.5480    -3.0990 ns         1 1UK      -0.448100
     22 C1          -1.5260    10.4730    -2.2210 c          1 1UK       0.663100
     23 O           -0.6790    10.1820    -1.4020 o          1 1UK      -0.605100
     24 C           -2.0920    11.8700    -2.2550 c3         1 1UK      -0.166100
     25 H1           4.5150     0.6630     0.6210 hn         1 1UK       0.447800
     26 H2           4.5160    -0.2050    -0.8800 hn         1 1UK       0.447800
     27 H3           3.3100     4.3020    -2.4830 h4         1 1UK       0.035100
     28 H4          -0.0570     1.9900    -1.1550 ha         1 1UK       0.164000
     29 H5           1.2220     5.8120    -1.1480 h4         1 1UK       0.169000
     30 H6          -0.1150     2.9640    -4.0420 ha         1 1UK       0.149000
     31 H7          -1.7050     4.6010    -4.9290 ha         1 1UK       0.162000
     32 H8          -0.0050     8.3710    -1.4230 h4         1 1UK       0.228000
     33 H9          -2.6610     9.7880    -3.7740 hn         1 1UK       0.337500
     34 H10         -1.8970    12.3140    -3.2230 hc         1 1UK       0.066033
     35 H11         -1.6250    12.4680    -1.4820 hc         1 1UK       0.066033
     36 H12         -3.1610    11.8310    -2.0850 hc         1 1UK       0.066033
@<TRIPOS>BOND
     1     4     2 1   
     2     1     2 1   
     3     2     3 1   
     4     2     5 1   
     5     5     6 ar  
     6     5    10 ar  
     7     7     6 1   
     8     6     8 ar  
     9    10    11 ar  
    10     8     9 ar  
    11    11     9 ar  
    12    11    12 1   
    13    13    12 2   
    14    13    17 1   
    15    23    22 2   
    16    12    14 1   
    17    18    17 1   
    18    18    20 2   
    19    17    16 1   
    20    22    24 1   
    21    22    21 1   
    22    20    21 1   
    23    20    19 1   
    24    14    15 2   
    25    16    15 1   
    26    16    19 2   
    27     7    25 1   
    28     7    26 1   
    29     9    27 1   
    30    10    28 1   
    31    13    29 1   
    32    14    30 1   
    33    15    31 1   
    34    18    32 1   
    35    21    33 1   
    36    24    34 1   
    37    24    35 1   
    38    24    36 1   
@<TRIPOS>SUBSTRUCTURE
     1 1UK         1 TEMP              0 ****  ****    0 ROOT
