@<TRIPOS>MOLECULE
1UK
   36    38     1     0     0
SMALL
bcc


@<TRIPOS>ATOM
      1 F2           0.0000     0.0000     0.0000 f          1 1UK      -0.206967
      2 C14          1.3990     0.0000     0.0000 c3         1 1UK       0.657200
      3 F            1.8650     0.0000     1.3200 f          1 1UK      -0.206967
      4 F1           1.8650    -1.1430    -0.6590 f          1 1UK      -0.206967
      5 C12          1.9010     1.2300    -0.7100 ca         1 1UK      -0.337600
      6 C11          3.2680     1.4580    -0.8410 ca         1 1UK       0.567200
      7 N4           4.1710     0.5430    -0.3120 nv         1 1UK      -0.671500
      8 N3           3.7210     2.5360    -1.4640 nb         1 1UK      -0.592000
      9 C10          2.9030     3.4310    -1.9820 ca         1 1UK       0.455200
     10 C13          1.0120     2.1420    -1.2430 ca         1 1UK       0.005000
     11 C9           1.5240     3.2720    -1.8890 ca         1 1UK      -0.169300
     12 C5           0.6080     4.2810    -2.4780 cc         1 1UK      -0.031000
     13 C4           0.5780     5.5460    -1.9780 cd         1 1UK      -0.259300
     14 C6          -0.2270     3.9290    -3.5640 cc         1 1UK      -0.122000
     15 C7          -1.0610     4.8590    -4.0970 cd         1 1UK      -0.026000
     16 C8          -1.0820     6.1630    -3.5600 cd         1 1UK      -0.236300
     17 N1          -0.2590     6.4810    -2.5110 na         1 1UK       0.631700
     18 C3          -0.4880     7.7980    -2.2050 cd         1 1UK      -0.455100
     19 N2          -1.7820     7.2430    -3.8790 nc         1 1UK      -0.274600
     20 C2          -1.4350     8.2480    -3.0660 cc         1 1UK       0.060200
     21 N           -1.9620     9.5480    -3.0990 ns         1 1UK       0.013900
     22 C1          -1.5260    10.4730    -2.2210 c          1 1UK       0.557100
     23 O           -0.6790    10.1820    -1.4020 o          1 1UK      -0.644100
     24 C           -2.0920    11.8700    -2.2550 c3         1 1UK      -0.066100
     25 H1           4.5150     0.6630     0.6210 hn         1 1UK       0.291800
     26 H2           4.5160    -0.2050    -0.8800 hn         1 1UK       0.291800
     27 H3           3.3100     4.3020    -2.4830 h4         1 1UK      -0.012900
     28 H4          -0.0570     1.9900    -1.1550 ha         1 1UK       0.132000
     29 H5           1.2220     5.8120    -1.1480 h4         1 1UK       0.146000
     30 H6          -0.1150     2.9640    -4.0420 ha         1 1UK       0.121000
     31 H7          -1.7050     4.6010    -4.9290 ha         1 1UK       0.125000
     32 H8          -0.0050     8.3710    -1.4230 h4         1 1UK       0.217000
     33 H9          -2.6610     9.7880    -3.7740 hn         1 1UK       0.171500
     34 H10         -1.8970    12.3140    -3.2230 hc         1 1UK       0.025367
     35 H11         -1.6250    12.4680    -1.4820 hc         1 1UK       0.025367
     36 H12         -3.1610    11.8310    -2.0850 hc         1 1UK       0.025367
@<TRIPOS>BOND
     1     1     2 1   
     2     2     3 1   
     3     2     4 1   
     4     2     5 1   
     5     5     6 ar  
     6     5    10 ar  
     7     6     7 1   
     8     6     8 ar  
     9     7    25 1   
    10     7    26 1   
    11     8     9 ar  
    12     9    11 ar  
    13     9    27 1   
    14    10    11 ar  
    15    10    28 1   
    16    11    12 1   
    17    12    13 2   
    18    12    14 1   
    19    13    17 1   
    20    13    29 1   
    21    14    15 2   
    22    14    30 1   
    23    15    16 1   
    24    15    31 1   
    25    16    17 1   
    26    16    19 2   
    27    17    18 1   
    28    18    20 2   
    29    18    32 1   
    30    19    20 1   
    31    20    21 1   
    32    21    22 1   
    33    21    33 1   
    34    22    23 2   
    35    22    24 1   
    36    24    34 1   
    37    24    35 1   
    38    24    36 1   
@<TRIPOS>SUBSTRUCTURE
     1 1UK         1 TEMP              0 ****  ****    0 ROOT
