@<TRIPOS>MOLECULE
1UL
   54    59     1     0     0
SMALL
bcc


@<TRIPOS>ATOM
      1 O1          1.1810   -0.3290    1.2430 o         1 1UL     -0.600100
      2 C1          2.1710    0.1300    0.6390 c         1 1UL      0.655100
      3 C23         3.3830    0.5950    1.4060 c3        1 1UL     -0.170100
      4 N1          2.1310    0.2850   -0.7480 n         1 1UL     -0.467800
      5 C22         1.0190   -0.2560   -1.5010 c3        1 1UL      0.083500
      6 C21         1.3780   -1.4700   -2.3610 c3        1 1UL     -0.120900
      7 C4          2.5770   -1.1360   -3.2620 c3        1 1UL      0.066000
      8 C3          3.7530   -0.6630   -2.3920 c3        1 1UL     -0.120900
      9 C2          3.3150    0.5290   -1.5360 c3        1 1UL      0.083500
     10 N2          2.9500   -2.2600   -4.1200 na        1 1UL      0.089400
     11 C7          3.3030   -3.5310   -3.6560 cc        1 1UL     -0.131300
     12 C6          3.6140   -4.3060   -4.7920 cd        1 1UL     -0.198300
     13 C5          3.4220   -3.3950   -5.9060 cd        1 1UL      0.307200
     14 N3          3.0280   -2.1780   -5.4600 nc        1 1UL     -0.508800
     15 C8          4.0340   -5.6730   -4.8330 ca        1 1UL     -0.106300
     16 C14         4.7460   -6.2470   -3.7550 ca        1 1UL      0.420200
     17 N4          5.2010   -7.5100   -3.6730 nb        1 1UL     -0.710000
     18 C13         4.9600   -8.3710   -4.7120 ca        1 1UL      0.656200
     19 N5          5.3130   -9.7180   -4.6360 nh        1 1UL     -0.921500
     20 C12         4.2620   -7.8680   -5.8430 ca        1 1UL     -0.111200
     21 C9          3.7870   -6.5280   -5.9170 ca        1 1UL     -0.028800
     22 O2          3.9360   -8.5760   -7.0010 os        1 1UL     -0.190200
     23 C11         3.2340   -7.6600   -7.8140 cc        1 1UL      0.091900
     24 C10         3.1220   -6.4260   -7.2010 cd        1 1UL     -0.158200
     25 C15         2.7570   -8.1330   -9.0930 ca        1 1UL      0.001200
     26 C20         3.3380   -9.2120   -9.7740 ca        1 1UL     -0.053100
     27 S           4.6340  -10.2640   -9.4500 ss        1 1UL      0.153600
     28 N7          4.4360  -11.1060  -10.9090 nc        1 1UL     -0.117500
     29 N6          3.5150  -10.7090  -11.6240 nd        1 1UL     -0.135400
     30 C19         2.8090   -9.6040  -11.0570 ca        1 1UL     -0.004600
     31 C18         1.7220   -8.9280  -11.6300 ca        1 1UL     -0.039000
     32 C17         1.1660   -7.8670  -10.9310 ca        1 1UL     -0.141000
     33 C16         1.6730   -7.4750   -9.6850 ca        1 1UL     -0.080000
     34 H1          4.2630   -0.0510    1.1700 hc        1 1UL      0.067367
     35 H2          3.6260    1.6570    1.1660 hc        1 1UL      0.067367
     36 H3          3.1600    0.5130    2.4990 hc        1 1UL      0.067367
     37 H4          0.6360    0.5650   -2.1740 h1        1 1UL      0.064200
     38 H5          0.1920   -0.5460   -0.7910 h1        1 1UL      0.064200
     39 H6          0.4870   -1.7360   -2.9850 hc        1 1UL      0.063450
     40 H7          1.6150   -2.3490   -1.7070 hc        1 1UL      0.063450
     41 H8          2.2760   -0.2770   -3.9370 h1        1 1UL      0.089700
     42 H9          4.6080   -0.3390   -3.0390 hc        1 1UL      0.063450
     43 H10         4.1110   -1.5000   -1.7390 hc        1 1UL      0.063450
     44 H11         4.1760    0.8310   -0.8780 h1        1 1UL      0.064200
     45 H12         3.0890    1.3970   -2.2230 h1        1 1UL      0.064200
     46 H13         3.2970   -3.7890   -2.5980 h4        1 1UL      0.179000
     47 H14         3.5740   -3.6030   -6.9650 h4        1 1UL      0.044100
     48 H15         4.9830   -5.6270   -2.8690 h4        1 1UL      0.021100
     49 H16         5.9850   -9.9620   -3.9430 hn        1 1UL      0.416300
     50 H17         5.4340  -10.1580   -5.5190 hn        1 1UL      0.416300
     51 H18         2.6310   -5.5370   -7.5880 ha        1 1UL      0.170000
     52 H19         1.3270   -9.2390  -12.6090 ha        1 1UL      0.160000
     53 H20         0.3100   -7.3200  -11.3570 ha        1 1UL      0.147000
     54 H21         1.2040   -6.6300   -9.1560 ha        1 1UL      0.147000
@<TRIPOS>BOND
     1    1    2 2   
     2    2    3 1   
     3    2    4 1   
     4    3   34 1   
     5    3   35 1   
     6    3   36 1   
     7    4    5 1   
     8    4    9 1   
     9    5    6 1   
    10    5   37 1   
    11    5   38 1   
    12    6    7 1   
    13    6   39 1   
    14    6   40 1   
    15    7    8 1   
    16    7   10 1   
    17    7   41 1   
    18    8    9 1   
    19    8   42 1   
    20    8   43 1   
    21    9   44 1   
    22    9   45 1   
    23   10   11 1   
    24   10   14 1   
    25   11   12 2   
    26   11   46 1   
    27   12   13 1   
    28   12   15 1   
    29   13   14 2   
    30   13   47 1   
    31   15   16 ar  
    32   15   21 ar  
    33   16   17 ar  
    34   16   48 1   
    35   17   18 ar  
    36   18   19 1   
    37   18   20 ar  
    38   19   49 1   
    39   19   50 1   
    40   20   21 ar  
    41   20   22 1   
    42   21   24 1   
    43   22   23 1   
    44   23   24 2   
    45   23   25 1   
    46   24   51 1   
    47   25   26 ar  
    48   25   33 ar  
    49   26   27 1   
    50   26   30 ar  
    51   27   28 1   
    52   28   29 2   
    53   29   30 1   
    54   30   31 ar  
    55   31   32 ar  
    56   31   52 1   
    57   32   33 ar  
    58   32   53 1   
    59   33   54 1   
@<TRIPOS>SUBSTRUCTURE
     1 1UL         1 TEMP              0 ****  ****    0 ROOT
