@<TRIPOS>MOLECULE
1UN
   87    90     1     0     0
SMALL
bcc


@<TRIPOS>ATOM
      1 C1          -0.1060    -0.4140    -0.2180 c3         1 1UN      -0.064700
      2 C2           1.3770    -0.0930    -0.3420 c3         1 1UN      -0.053700
      3 C3           1.9870     0.2170     1.0180 c3         1 1UN      -0.077400
      4 C4           1.6900    -0.8430     2.0570 c3         1 1UN      -0.081400
      5 C5           0.2050    -1.1240     2.1590 c3         1 1UN      -0.083400
      6 C6          -0.3820    -1.4970     0.8130 c3         1 1UN      -0.072400
      7 N7           0.0420    -1.7840    -2.3510 n3         1 1UN      -0.725600
      8 C8           1.4890    -1.5710    -2.3910 c3         1 1UN       0.147500
      9 C9           2.1080    -1.2380    -1.0200 c3         1 1UN      -0.087400
     10 C10         -0.6850    -0.7690    -1.5870 c3         1 1UN       0.158800
     11 C11          2.2040    -2.8500    -2.8760 c          1 1UN       0.536100
     12 N12          3.6630    -2.6900    -3.2280 ny         1 1UN      -0.689800
     13 C13          3.9410    -2.6130    -4.7370 c3         1 1UN       0.160200
     14 C14          3.0560    -1.5470    -5.3810 c3         1 1UN      -0.131433
     15 C15          3.6780    -3.9740    -5.3820 c3         1 1UN      -0.131433
     16 C16          5.4130    -2.2360    -4.9330 c3         1 1UN      -0.131433
     17 O17          1.7600    -3.9840    -2.9630 o          1 1UN      -0.421100
     18 C18         -0.5170    -1.9610    -3.6870 c3         1 1UN       0.127800
     19 C19         -2.0090    -2.3490    -3.7090 c3         1 1UN       0.131100
     20 C20         -2.2990    -3.6460    -2.9120 c3         1 1UN       0.149500
     21 O21         -2.4080    -2.6210    -5.0450 oh         1 1UN      -0.618800
     22 N22         -3.7700    -3.9620    -2.9350 ny         1 1UN      -0.700800
     23 C23         -1.4720    -4.8160    -3.4530 c3         1 1UN      -0.097300
     24 C24         -4.5960    -3.1830    -1.9300 c          1 1UN       0.590700
     25 O25         -4.0500    -2.2000    -1.4410 o          1 1UN      -0.461100
     26 C29         -5.9290    -3.7260    -1.6630 ca         1 1UN      -0.182600
     27 C30         -6.6460    -4.4060    -2.6660 ca         1 1UN      -0.137000
     28 C31         -7.9190    -4.8930    -2.4030 ca         1 1UN      -0.080000
     29 C32         -8.4960    -4.7170    -1.1440 ca         1 1UN      -0.141000
     30 C33         -7.7870    -4.0370    -0.1480 ca         1 1UN       0.135100
     31 C34         -6.4880    -3.5210    -0.3880 ca         1 1UN      -0.002300
     32 O38         -8.2940    -3.8260     1.1070 oh         1 1UN      -0.475100
     33 C39         -5.7770    -2.7880     0.6820 c3         1 1UN      -0.075800
     34 S74         -2.1590    -6.3960    -3.0810 ss         1 1UN      -0.162000
     35 C77         -2.7870    -6.9820    -4.5560 ca         1 1UN      -0.062100
     36 C78         -2.8910    -8.3750    -4.6410 ca         1 1UN      -0.119000
     37 C79         -3.4600    -8.9650    -5.7690 ca         1 1UN      -0.109000
     38 C80         -3.9070    -8.1700    -6.8250 ca         1 1UN      -0.095000
     39 C81         -3.7870    -6.7810    -6.7500 ca         1 1UN      -0.109000
     40 C82         -3.2330    -6.1880    -5.6170 ca         1 1UN      -0.119000
     41 H1          -0.6360     0.5240     0.1200 hc         1 1UN       0.086700
     42 H2           1.4850     0.8240    -0.9900 hc         1 1UN       0.055700
     43 H31A         1.5740     1.2010     1.3690 hc         1 1UN       0.059700
     44 H32A         3.0960     0.3390     0.9100 hc         1 1UN       0.059700
     45 H41          2.0720    -0.4960     3.0540 hc         1 1UN       0.051700
     46 H42          2.2360    -1.7900     1.8050 hc         1 1UN       0.051700
     47 H51          0.0310    -1.9600     2.8860 hc         1 1UN       0.060200
     48 H52         -0.3200    -0.2170     2.5590 hc         1 1UN       0.060200
     49 H61          0.0460    -2.4740     0.4700 hc         1 1UN       0.042700
     50 H62         -1.4910    -1.6330     0.9150 hc         1 1UN       0.042700
     51 H8           1.7580    -0.7460    -3.1250 h1         1 1UN       0.065700
     52 H91          2.0750    -2.1440    -0.3570 hc         1 1UN       0.063700
     53 H92          3.1800    -0.9410    -1.1620 hc         1 1UN       0.063700
     54 H101        -0.7740     0.1840    -2.1880 h1         1 1UN       0.056200
     55 H102        -1.7240    -1.1810    -1.4240 h1         1 1UN       0.056200
     56 HNC          4.0330    -1.8390    -2.7950 hn         1 1UN       0.460800
     57 H141         3.2530    -0.5350    -4.9490 hc         1 1UN       0.079478
     58 H142         3.2950    -1.5070    -6.4740 hc         1 1UN       0.079478
     59 H143         1.9720    -1.7970    -5.2690 hc         1 1UN       0.079478
     60 H151         4.3660    -4.7560    -4.9760 hc         1 1UN       0.079478
     61 H152         2.6210    -4.3020    -5.2300 hc         1 1UN       0.079478
     62 H153         3.8660    -3.8850    -6.4820 hc         1 1UN       0.079478
     63 H161         6.0950    -2.9950    -4.4780 hc         1 1UN       0.079478
     64 H162         5.6220    -2.2020    -6.0330 hc         1 1UN       0.079478
     65 H163         5.6400    -1.2290    -4.5080 hc         1 1UN       0.079478
     66 H181        -0.4180    -1.0230    -4.3130 h1         1 1UN       0.053200
     67 H182         0.0560    -2.7810    -4.2080 h1         1 1UN       0.053200
     68 H19         -2.6290    -1.5020    -3.2930 h1         1 1UN       0.079700
     69 H20         -2.0220    -3.4590    -1.8300 hx         1 1UN       0.131700
     70 HOL         -2.3210    -1.8030    -5.5540 ho         1 1UN       0.443000
     71 HNM         -3.8750    -4.9890    -2.7450 hn         1 1UN       0.477800
     72 H231        -1.3080    -4.6940    -4.5540 h1         1 1UN       0.121200
     73 H232        -0.4660    -4.7720    -2.9540 h1         1 1UN       0.121200
     74 H30         -6.2360    -4.5410    -3.6770 ha         1 1UN       0.129000
     75 H31         -8.4830    -5.4180    -3.1920 ha         1 1UN       0.169000
     76 H32         -9.5070    -5.1080    -0.9390 ha         1 1UN       0.171000
     77 HO          -9.1850    -4.2120     1.1540 ho         1 1UN       0.448000
     78 H391        -4.7090    -3.1120     0.7510 hc         1 1UN       0.074033
     79 H392        -5.7940    -1.6890     0.4610 hc         1 1UN       0.074033
     80 H393        -6.2640    -2.9520     1.6780 hc         1 1UN       0.074033
     81 H78         -2.5210    -9.0070    -3.8170 ha         1 1UN       0.138000
     82 H79         -3.5470   -10.0620    -5.8270 ha         1 1UN       0.156500
     83 H80         -4.3470    -8.6380    -7.7210 ha         1 1UN       0.161000
     84 H81         -4.1280    -6.1530    -7.5870 ha         1 1UN       0.156500
     85 H82         -3.1350    -5.0910    -5.5810 ha         1 1UN       0.138000
     86 H122         4.1840    -3.5010    -2.8690 hn         1 1UN       0.460800
     87 H222        -4.1310    -3.7710    -3.8790 hn         1 1UN       0.477800
@<TRIPOS>BOND
     1     1     2 1   
     2     1     6 1   
     3     1    10 1   
     4     1    41 1   
     5     2     3 1   
     6     2     9 1   
     7     2    42 1   
     8     3     4 1   
     9     3    43 1   
    10     3    44 1   
    11     4     5 1   
    12     4    45 1   
    13     4    46 1   
    14     5     6 1   
    15     5    47 1   
    16     5    48 1   
    17     6    49 1   
    18     6    50 1   
    19     7     8 1   
    20     7    10 1   
    21     7    18 1   
    22     8     9 1   
    23     8    11 1   
    24     8    51 1   
    25     9    52 1   
    26     9    53 1   
    27    10    54 1   
    28    10    55 1   
    29    11    12 1   
    30    11    17 2   
    31    12    13 1   
    32    12    56 1   
    33    12    86 1   
    34    13    14 1   
    35    13    15 1   
    36    13    16 1   
    37    14    57 1   
    38    14    58 1   
    39    14    59 1   
    40    15    60 1   
    41    15    61 1   
    42    15    62 1   
    43    16    63 1   
    44    16    64 1   
    45    16    65 1   
    46    18    19 1   
    47    18    66 1   
    48    18    67 1   
    49    19    20 1   
    50    19    21 1   
    51    19    68 1   
    52    20    22 1   
    53    20    23 1   
    54    20    69 1   
    55    21    70 1   
    56    22    24 1   
    57    22    71 1   
    58    22    87 1   
    59    23    34 1   
    60    23    72 1   
    61    23    73 1   
    62    24    25 2   
    63    24    26 1   
    64    26    27 ar  
    65    26    31 ar  
    66    27    28 ar  
    67    27    74 1   
    68    28    29 ar  
    69    28    75 1   
    70    29    30 ar  
    71    29    76 1   
    72    30    31 ar  
    73    30    32 1   
    74    31    33 1   
    75    32    77 1   
    76    33    78 1   
    77    33    79 1   
    78    33    80 1   
    79    34    35 1   
    80    35    36 ar  
    81    35    40 ar  
    82    36    37 ar  
    83    36    81 1   
    84    37    38 ar  
    85    37    82 1   
    86    38    39 ar  
    87    38    83 1   
    88    39    40 ar  
    89    39    84 1   
    90    40    85 1   
@<TRIPOS>SUBSTRUCTURE
     1 1UN         1 TEMP              0 ****  ****    0 ROOT
