@<TRIPOS>MOLECULE
molecule
   85    88     1     0     0
SMALL
bcc


@<TRIPOS>ATOM
      1 C1           0.0000     0.0000     0.0000 c3         1 1UN      -0.063700
      2 C2           1.5310     0.0000     0.0000 c3         1 1UN      -0.065700
      3 C3           2.0550     0.0000     1.4350 c3         1 1UN      -0.072400
      4 C4           1.5210    -1.2120     2.2000 c3         1 1UN      -0.081400
      5 C5          -0.0090    -1.1660     2.2130 c3         1 1UN      -0.081400
      6 C6          -0.5290    -1.2080     0.7750 c3         1 1UN      -0.073400
      7 N7          -0.0360    -1.3460    -2.0460 n3         1 1UN      -0.643600
      8 C8           1.4270    -1.2910    -2.1290 c3         1 1UN       0.077500
      9 C9           2.0050    -1.2580    -0.7320 c3         1 1UN      -0.069400
     10 C10         -0.4910    -0.0860    -1.4500 c3         1 1UN       0.122800
     11 C11          1.9210    -2.5200    -2.8470 c          1 1UN       0.657100
     12 N12          3.0630    -2.4700    -3.5620 ns         1 1UN      -0.583900
     13 C13          3.5430    -3.6660    -4.2590 c3         1 1UN       0.122400
     14 C14          4.8480    -3.3400    -4.9890 c3         1 1UN      -0.101100
     15 C15          3.7910    -4.7830    -3.2440 c3         1 1UN      -0.101100
     16 C16          2.4910    -4.1220    -5.2730 c3         1 1UN      -0.101100
     17 O17          1.2920    -3.5540    -2.7820 o          1 1UN      -0.592100
     18 C18         -0.5370    -1.3640    -3.4280 c3         1 1UN       0.128800
     19 C19         -2.0630    -1.4710    -3.4140 c3         1 1UN       0.136100
     20 C20         -2.5650    -1.7660    -4.8280 c3         1 1UN       0.107700
     21 O21         -2.6230    -0.2380    -2.9590 oh         1 1UN      -0.610800
     22 N22         -4.0270    -1.8700    -4.8160 ns         1 1UN      -0.582900
     23 C23         -2.1420    -0.6360    -5.7660 c3         1 1UN      -0.031300
     24 C24         -4.6530    -2.6710    -5.6990 c          1 1UN       0.680700
     25 O25         -4.0060    -3.3090    -6.5060 o          1 1UN      -0.592100
     26 C29         -6.1280    -2.7740    -5.6860 ca         1 1UN      -0.127600
     27 C30         -6.8860    -1.8950    -4.9110 ca         1 1UN      -0.125000
     28 C31         -8.2620    -1.9950    -4.9010 ca         1 1UN      -0.118000
     29 C32         -8.8950    -2.9600    -5.6630 ca         1 1UN      -0.171000
     30 C33         -8.1510    -3.8330    -6.4420 ca         1 1UN       0.110100
     31 C34         -6.7690    -3.7430    -6.4590 ca         1 1UN      -0.033300
     32 O38         -8.7790    -4.7790    -7.1900 oh         1 1UN      -0.503100
     33 C39         -5.9590    -4.6910    -7.3050 c3         1 1UN      -0.043800
     34 S74         -2.7380    -0.9870    -7.4430 ss         1 1UN      -0.195000
     35 C77         -2.1270     0.4330    -8.2890 ca         1 1UN       0.022900
     36 C78         -2.3600     0.5870    -9.6500 ca         1 1UN      -0.135000
     37 C79         -1.8790     1.7010   -10.3090 ca         1 1UN      -0.114000
     38 C80         -1.1670     2.6630    -9.6160 ca         1 1UN      -0.142000
     39 C81         -0.9320     2.5120    -8.2610 ca         1 1UN      -0.114000
     40 C82         -1.4150     1.4040    -7.5940 ca         1 1UN      -0.135000
     41 H1          -0.3650     0.9130     0.4550 hc         1 1UN       0.051700
     42 H2           1.8930     0.8790    -0.5180 hc         1 1UN       0.045700
     43 H31A         1.7310     0.9060     1.9320 hc         1 1UN       0.040200
     44 H32A         3.1370    -0.0380     1.4190 hc         1 1UN       0.040200
     45 H41          1.8500    -2.1210     1.7110 hc         1 1UN       0.042700
     46 H42          1.8910    -1.1880     3.2170 hc         1 1UN       0.042700
     47 H51         -0.3380    -0.2510     2.6890 hc         1 1UN       0.039200
     48 H52         -0.3900    -2.0210     2.7590 hc         1 1UN       0.039200
     49 H61         -0.1900    -2.1190     0.2970 hc         1 1UN       0.053700
     50 H62         -1.6120    -1.1820     0.7850 hc         1 1UN       0.053700
     51 H8           1.7270    -0.4010    -2.6690 h1         1 1UN       0.032700
     52 H91          3.0870    -1.2510    -0.7920 hc         1 1UN       0.060200
     53 H92          1.6760    -2.1350    -0.1870 hc         1 1UN       0.060200
     54 H101        -0.0900     0.7460    -2.0160 h1         1 1UN       0.054700
     55 H102        -1.5740    -0.0510    -1.4660 h1         1 1UN       0.054700
     56 HNC          3.5900    -1.6200    -3.6040 hn         1 1UN       0.311500
     57 H141         4.6740    -2.5430    -5.7010 hc         1 1UN       0.045478
     58 H142         5.5950    -3.0260    -4.2700 hc         1 1UN       0.045478
     59 H143         5.1980    -4.2220    -5.5120 hc         1 1UN       0.045478
     60 H151         4.4400    -5.5310    -3.6820 hc         1 1UN       0.045478
     61 H152         2.8470    -5.2390    -2.9710 hc         1 1UN       0.045478
     62 H153         4.2610    -4.3690    -2.3600 hc         1 1UN       0.045478
     63 H161         2.9530    -4.7750    -6.0040 hc         1 1UN       0.045478
     64 H162         1.7020    -4.6570    -4.7580 hc         1 1UN       0.045478
     65 H163         2.0730    -3.2570    -5.7740 hc         1 1UN       0.045478
     66 H181        -0.1200    -2.2160    -3.9520 h1         1 1UN       0.058200
     67 H182        -0.2430    -0.4510    -3.9310 h1         1 1UN       0.058200
     68 H19         -2.3640    -2.2720    -2.7490 h1         1 1UN       0.069700
     69 H20         -2.1400    -2.7010    -5.1740 h1         1 1UN       0.103700
     70 HOL         -3.3990    -0.4130    -2.4510 ho         1 1UN       0.403000
     71 HNM         -4.5590    -1.3580    -4.1400 hn         1 1UN       0.313500
     72 H231        -1.0610    -0.5600    -5.7760 h1         1 1UN       0.074200
     73 H232        -2.5660     0.2990    -5.4210 h1         1 1UN       0.074200
     74 H30         -6.3930    -1.1380    -4.3130 ha         1 1UN       0.124000
     75 H31         -8.8480    -1.3140    -4.2960 ha         1 1UN       0.134000
     76 H32         -9.9760    -3.0330    -5.6510 ha         1 1UN       0.135000
     77 HO          -9.5290    -4.3980    -7.6150 ho         1 1UN       0.421000
     78 H391        -6.6170    -5.4230    -7.7580 hc         1 1UN       0.059367
     79 H392        -5.4480    -4.1360    -8.0820 hc         1 1UN       0.059367
     80 H393        -5.2300    -5.1970    -6.6830 hc         1 1UN       0.059367
     81 H78         -2.9180    -0.1660   -10.1930 ha         1 1UN       0.135500
     82 H79         -2.0610     1.8230   -11.3700 ha         1 1UN       0.128500
     83 H80         -0.7890     3.5350   -10.1360 ha         1 1UN       0.127000
     84 H81         -0.3750     3.2690    -7.7210 ha         1 1UN       0.128500
     85 H82         -1.2300     1.2870    -6.5330 ha         1 1UN       0.135500
@<TRIPOS>BOND
     1     1     2 1   
     2     1     6 1   
     3     1    10 1   
     4     1    41 1   
     5     2     3 1   
     6     2     9 1   
     7     2    42 1   
     8     3     4 1   
     9     3    43 1   
    10     3    44 1   
    11     4     5 1   
    12     4    45 1   
    13     4    46 1   
    14     5     6 1   
    15     5    47 1   
    16     5    48 1   
    17     6    49 1   
    18     6    50 1   
    19     7     8 1   
    20     7    10 1   
    21     7    18 1   
    22     8     9 1   
    23     8    11 1   
    24     8    51 1   
    25     9    52 1   
    26     9    53 1   
    27    10    54 1   
    28    10    55 1   
    29    11    12 1   
    30    11    17 2   
    31    12    13 1   
    32    12    56 1   
    33    13    14 1   
    34    13    15 1   
    35    13    16 1   
    36    14    57 1   
    37    14    58 1   
    38    14    59 1   
    39    15    60 1   
    40    15    61 1   
    41    15    62 1   
    42    16    63 1   
    43    16    64 1   
    44    16    65 1   
    45    18    19 1   
    46    18    66 1   
    47    18    67 1   
    48    19    20 1   
    49    19    21 1   
    50    19    68 1   
    51    20    22 1   
    52    20    23 1   
    53    20    69 1   
    54    21    70 1   
    55    22    24 1   
    56    22    71 1   
    57    23    34 1   
    58    23    72 1   
    59    23    73 1   
    60    24    25 2   
    61    24    26 1   
    62    26    27 ar  
    63    26    31 ar  
    64    27    28 ar  
    65    27    74 1   
    66    28    29 ar  
    67    28    75 1   
    68    29    30 ar  
    69    29    76 1   
    70    30    31 ar  
    71    30    32 1   
    72    31    33 1   
    73    32    77 1   
    74    33    78 1   
    75    33    79 1   
    76    33    80 1   
    77    34    35 1   
    78    35    36 ar  
    79    35    40 ar  
    80    36    37 ar  
    81    36    81 1   
    82    37    38 ar  
    83    37    82 1   
    84    38    39 ar  
    85    38    83 1   
    86    39    40 ar  
    87    39    84 1   
    88    40    85 1   
@<TRIPOS>SUBSTRUCTURE
     1 1UN         1 TEMP              0 ****  ****    0 ROOT
