@<TRIPOS>MOLECULE
1UO
   51    56     1     0     0
SMALL
bcc


@<TRIPOS>ATOM
      1 O1         -0.2230   -0.3120   -0.0470 oh        1 1UO     -0.595800
      2 C2          1.1860   -0.2420   -0.2230 c3        1 1UO      0.139100
      3 C4          1.7620    0.2350    1.1070 c3        1 1UO     -0.095900
      4 C5          3.2730    0.2740    1.0550 c3        1 1UO     -0.090900
      5 C6          3.8290   -1.1170    0.7050 c3        1 1UO      0.064000
      6 C8          3.2680   -1.5680   -0.6540 c3        1 1UO     -0.090900
      7 C9          1.7570   -1.6040   -0.6080 c3        1 1UO     -0.095900
      8 N10         5.2920   -1.1390    0.7230 na        1 1UO      0.090400
      9 C11         6.1060   -0.3540   -0.0990 cc        1 1UO     -0.126300
     10 C12         7.4380   -0.6650    0.2350 cd        1 1UO     -0.213300
     11 C13         7.3210   -1.6650    1.2790 cd        1 1UO      0.318200
     12 N14         6.0170   -1.9220    1.5420 nc        1 1UO     -0.510800
     13 C15         8.6330   -0.1380   -0.3570 ca        1 1UO     -0.101300
     14 C16         8.7920   -0.1600   -1.7620 ca        1 1UO      0.424200
     15 N17         9.8530    0.2810   -2.4600 nb        1 1UO     -0.709000
     16 C18        10.9080    0.8330   -1.7820 ca        1 1UO      0.659200
     17 N19        11.9880    1.4010   -2.4550 nh        1 1UO     -0.922500
     18 C20        10.8300    0.8850   -0.3630 ca        1 1UO     -0.114200
     19 O21        11.8060    1.3980    0.4940 os        1 1UO     -0.180200
     20 C22        11.2790    1.2620    1.7930 cc        1 1UO      0.095900
     21 C23        12.1140    1.7210    2.8820 ca        1 1UO     -0.005800
     22 C24        12.2290    0.9350    4.0310 ca        1 1UO     -0.070000
     23 C25        13.0150    1.3400    5.1190 ca        1 1UO     -0.144000
     24 C26        13.7090    2.5400    5.0960 ca        1 1UO     -0.035000
     25 C27        13.6060    3.3460    3.9540 ca        1 1UO     -0.007600
     26 N28        14.2330    4.6130    3.7470 nc        1 1UO     -0.135400
     27 N29        13.9610    5.1080    2.6520 nd        1 1UO     -0.119500
     28 S30        12.9320    4.1810    1.6730 ss        1 1UO      0.162600
     29 C31        12.8040    2.9400    2.8260 ca        1 1UO     -0.053100
     30 C32        10.0210    0.6790    1.7600 cd        1 1UO     -0.024800
     31 CL3         9.0340    0.3720    3.0670 cl        1 1UO     -0.026400
     32 C34         9.7010    0.4140    0.3650 ca        1 1UO     -0.017800
     33 H1         -0.5900   -0.6540   -0.8710 ho        1 1UO      0.401000
     34 H2          1.4210    0.5070   -1.0320 h1        1 1UO      0.033700
     35 H3          1.3630    1.2570    1.3340 hc        1 1UO      0.058450
     36 H4          1.4150   -0.4510    1.9230 hc        1 1UO      0.058450
     37 H5          3.6680    0.6020    2.0520 hc        1 1UO      0.055950
     38 H6          3.6110    1.0220    0.2910 hc        1 1UO      0.055950
     39 H7          3.4670   -1.8470    1.4920 h1        1 1UO      0.091700
     40 H8          3.6560   -2.5890   -0.9080 hc        1 1UO      0.055950
     41 H9          3.6080   -0.8640   -1.4580 hc        1 1UO      0.055950
     42 H10         1.4100   -2.3690    0.1360 hc        1 1UO      0.058450
     43 H11         1.3610   -1.9060   -1.6120 hc        1 1UO      0.058450
     44 H12         5.7000    0.3480   -0.8260 h4        1 1UO      0.178000
     45 H13         8.1300   -2.1720    1.8070 h4        1 1UO      0.047100
     46 H14         7.9850   -0.5860   -2.3900 h4        1 1UO      0.027100
     47 H15        12.1020    1.1440   -3.4090 hn        1 1UO      0.417300
     48 H16        12.8260    1.4430   -1.9210 hn        1 1UO      0.417300
     49 H17        11.6910   -0.0260    4.0840 ha        1 1UO      0.153000
     50 H18        13.0780    0.6880    6.0050 ha        1 1UO      0.148000
     51 H19        14.3250    2.8610    5.9500 ha        1 1UO      0.160000
@<TRIPOS>BOND
     1    1    2 1   
     2    1   33 1   
     3    2    3 1   
     4    2    7 1   
     5    2   34 1   
     6    3    4 1   
     7    3   35 1   
     8    3   36 1   
     9    4    5 1   
    10    4   37 1   
    11    4   38 1   
    12    5    6 1   
    13    5    8 1   
    14    5   39 1   
    15    6    7 1   
    16    6   40 1   
    17    6   41 1   
    18    7   42 1   
    19    7   43 1   
    20    8    9 1   
    21    8   12 1   
    22    9   10 2   
    23    9   44 1   
    24   10   11 1   
    25   10   13 1   
    26   11   12 2   
    27   11   45 1   
    28   13   14 ar  
    29   13   32 ar  
    30   14   15 ar  
    31   14   46 1   
    32   15   16 ar  
    33   16   17 1   
    34   16   18 ar  
    35   17   47 1   
    36   17   48 1   
    37   18   19 1   
    38   18   32 ar  
    39   19   20 1   
    40   20   21 1   
    41   20   30 2   
    42   21   22 ar  
    43   21   29 ar  
    44   22   23 ar  
    45   22   49 1   
    46   23   24 ar  
    47   23   50 1   
    48   24   25 ar  
    49   24   51 1   
    50   25   26 1   
    51   25   29 ar  
    52   26   27 2   
    53   27   28 1   
    54   28   29 1   
    55   30   31 1   
    56   30   32 1   
@<TRIPOS>SUBSTRUCTURE
     1 1UO         1 TEMP              0 ****  ****    0 ROOT
