@<TRIPOS>MOLECULE
1UP
   37    38     1     0     0
SMALL
bcc


@<TRIPOS>ATOM
      1 O3           0.4890     0.3480     1.0450 o          1 1UP      -0.380100
      2 C13          1.4390    -0.0110     0.3710 c          1 1UP       0.524100
      3 N1           2.3350    -1.0490     0.9960 nz         1 1UP      -0.751400
      4 C12          1.7910     0.4710    -1.0230 c3         1 1UP       0.068400
      5 O2           2.9850    -0.1400    -1.4960 os         1 1UP      -0.342900
      6 C11          4.0420     0.7400    -1.7270 ca         1 1UP       0.022100
      7 C2           4.7000     1.3790    -0.6780 ca         1 1UP       0.136100
      8 O1           4.1770     1.1850     0.5840 os         1 1UP      -0.403900
      9 C1           4.7440     1.9740     1.6410 c3         1 1UP       0.109700
     10 C10          4.5000     0.8840    -3.0710 ca         1 1UP      -0.012000
     11 C5           5.6320     1.7030    -3.3140 ca         1 1UP      -0.031000
     12 C4           6.2890     2.3410    -2.2250 ca         1 1UP      -0.055000
     13 C3           5.8400     2.1870    -0.9380 ca         1 1UP      -0.147000
     14 C9           3.8580     0.2410    -4.1650 ca         1 1UP      -0.033000
     15 C8           4.3250     0.4320    -5.4510 ca         1 1UP      -0.185900
     16 C14          3.6070    -0.2020    -6.5870 ce         1 1UP       0.626800
     17 N3           4.5850    -0.7900    -7.6060 nz         1 1UP      -0.886600
     18 N2           2.3450    -0.2390    -6.6890 n2         1 1UP      -0.681100
     19 C7           5.4420     1.2750    -5.6990 ca         1 1UP      -0.142000
     20 C6           6.0810     1.8870    -4.6510 ca         1 1UP      -0.062000
     21 H1           3.2710    -0.6390     1.1290 hn         1 1UP       0.478467
     22 H2           2.4230    -1.8510     0.3630 hn         1 1UP       0.478467
     23 H3           0.9650     0.1350    -1.7160 h1         1 1UP       0.134200
     24 H4           1.8510     1.5940    -0.9940 h1         1 1UP       0.134200
     25 H5           4.1030     1.7180     2.5230 h1         1 1UP       0.073033
     26 H6           4.6670     3.0620     1.4000 h1         1 1UP       0.073033
     27 H7           5.8040     1.6710     1.8170 h1         1 1UP       0.073033
     28 H8           7.1730     2.9700    -2.4330 ha         1 1UP       0.176000
     29 H9           6.3620     2.6860    -0.1050 ha         1 1UP       0.178000
     30 H10          2.9850    -0.4000    -3.9580 ha         1 1UP       0.165000
     31 H11          4.1810    -1.5790    -8.1170 hn         1 1UP       0.465467
     32 H12          4.8550    -0.0630    -8.2770 hn         1 1UP       0.465467
     33 H13          1.8510    -0.6660    -7.4420 hn         1 1UP       0.473400
     34 H14          5.7800     1.4760    -6.7270 ha         1 1UP       0.140000
     35 H15          6.9500     2.5450    -4.8310 ha         1 1UP       0.175000
     36 H131         1.9600    -1.3590     1.9000 hn         1 1UP       0.478467
     37 H33          5.4280    -1.1090    -7.1130 hn         1 1UP       0.465467
@<TRIPOS>BOND
     1     1     2 2   
     2     2     3 1   
     3     2     4 1   
     4     3    21 1   
     5     3    22 1   
     6     3    36 1   
     7     4     5 1   
     8     4    23 1   
     9     4    24 1   
    10     5     6 1   
    11     6     7 ar  
    12     6    10 ar  
    13     7     8 1   
    14     7    13 ar  
    15     8     9 1   
    16     9    25 1   
    17     9    26 1   
    18     9    27 1   
    19    10    11 ar  
    20    10    14 ar  
    21    11    12 ar  
    22    11    20 ar  
    23    12    13 ar  
    24    12    28 1   
    25    13    29 1   
    26    14    15 ar  
    27    14    30 1   
    28    15    16 1   
    29    15    19 ar  
    30    16    17 1   
    31    16    18 2   
    32    17    31 1   
    33    17    32 1   
    34    17    37 1   
    35    18    33 1   
    36    19    20 ar  
    37    19    34 1   
    38    20    35 1   
@<TRIPOS>SUBSTRUCTURE
     1 1UP         1 TEMP              0 ****  ****    0 ROOT
