@<TRIPOS>MOLECULE
1UP
   37    38     1     0     0
SMALL
bcc


@<TRIPOS>ATOM
      1 O3           0.0000     0.0000     0.0000 o          1 1UP      -0.352100
      2 C13          1.2130     0.0000     0.0000 c          1 1UP       0.285100
      3 N1           1.8860     0.0000     1.1670 nz         1 1UP       0.206600
      4 C12          1.9660    -0.0090    -1.3060 c3         1 1UP       0.144400
      5 O2           1.0380    -0.0140    -2.3910 os         1 1UP      -0.265900
      6 C11          1.5580    -0.0210    -3.6470 ca         1 1UP       0.004100
      7 C2           1.8230    -1.2170    -4.2850 ca         1 1UP       0.200100
      8 O1           1.5620    -2.3910    -3.6490 os         1 1UP      -0.302900
      9 C1           1.8590    -3.5940    -4.3610 c3         1 1UP       0.240700
     10 C10          1.8240     1.1920    -4.3130 ca         1 1UP      -0.002000
     11 C5           2.3680     1.1620    -5.6230 ca         1 1UP      -0.049000
     12 C4           2.6290    -0.0740    -6.2350 ca         1 1UP      -0.006000
     13 C3           2.3570    -1.2330    -5.5740 ca         1 1UP      -0.157000
     14 C9           1.5630     2.4260    -3.7010 ca         1 1UP      -0.058000
     15 C8           1.8370     3.5980    -4.3860 ca         1 1UP      -0.201900
     16 C14          1.5630     4.9030    -3.7460 ce         1 1UP       0.226800
     17 N3           1.8350     6.0730    -4.4230 nz         1 1UP       0.186400
     18 N2           1.0660     4.9470    -2.5430 n2         1 1UP      -0.498100
     19 C7           2.3750     3.5570    -5.6840 ca         1 1UP      -0.139000
     20 C6           2.6360     2.3710    -6.2920 ca         1 1UP       0.010000
     21 H1           1.3110    -0.3940     1.8850 hn         1 1UP       0.250133
     22 H2           2.7200    -0.5460     1.0710 hn         1 1UP       0.250133
     23 H3           2.5900     0.8740    -1.3680 h1         1 1UP       0.033700
     24 H4           2.5880    -0.8950    -1.3580 h1         1 1UP       0.033700
     25 H5           1.6600    -4.4480    -3.7250 h1         1 1UP       0.015700
     26 H6           1.2390    -3.6510    -5.2470 h1         1 1UP       0.015700
     27 H7           2.9030    -3.5950    -4.6490 h1         1 1UP       0.015700
     28 H8           3.0430    -0.1060    -7.2350 ha         1 1UP       0.131000
     29 H9           2.5570    -2.1820    -6.0560 ha         1 1UP       0.149000
     30 H10          1.0220     2.4620    -2.7630 ha         1 1UP       0.109000
     31 H11          1.3230     6.0890    -5.2830 hn         1 1UP       0.227467
     32 H12          2.8150     6.1270    -4.6170 hn         1 1UP       0.227467
     33 H13          0.8680     4.0990    -2.0490 hn         1 1UP       0.366400
     34 H14          2.5830     4.4830    -6.2050 ha         1 1UP       0.094000
     35 H15          3.0500     2.3560    -7.2920 ha         1 1UP       0.133000
     36 H131         2.1370     0.9390     1.4080 hn         1 1UP       0.250133
     37 H33          1.5540     6.8550    -3.8640 hn         1 1UP       0.227467
@<TRIPOS>BOND
     1     1     2 2   
     2     2     3 1   
     3     2     4 1   
     4     3    21 1   
     5     3    22 1   
     6     3    36 1   
     7     4     5 1   
     8     4    23 1   
     9     4    24 1   
    10     5     6 1   
    11     6     7 ar  
    12     6    10 ar  
    13     7     8 1   
    14     7    13 ar  
    15     8     9 1   
    16     9    25 1   
    17     9    26 1   
    18     9    27 1   
    19    10    11 ar  
    20    10    14 ar  
    21    11    12 ar  
    22    11    20 ar  
    23    12    13 ar  
    24    12    28 1   
    25    13    29 1   
    26    14    15 ar  
    27    14    30 1   
    28    15    16 1   
    29    15    19 ar  
    30    16    17 1   
    31    16    18 2   
    32    17    31 1   
    33    17    32 1   
    34    17    37 1   
    35    18    33 1   
    36    19    20 ar  
    37    19    34 1   
    38    20    35 1   
@<TRIPOS>SUBSTRUCTURE
     1 1UP         1 TEMP              0 ****  ****    0 ROOT
