@<TRIPOS>MOLECULE
molecule
   37    38     1     0     0
SMALL
bcc


@<TRIPOS>ATOM
      1 O3           0.0000     0.0000     0.0000 o          1 1UP      -0.346100
      2 C13          1.2130     0.0000     0.0000 c          1 1UP       0.465100
      3 N1           1.8860     0.0000     1.1670 nz         1 1UP      -0.683400
      4 C12          1.9660    -0.0090    -1.3060 c3         1 1UP       0.065400
      5 O2           1.0380    -0.0140    -2.3910 os         1 1UP      -0.281900
      6 C11          1.5580    -0.0210    -3.6470 ca         1 1UP       0.021100
      7 C2           1.8230    -1.2170    -4.2850 ca         1 1UP       0.184100
      8 O1           1.5620    -2.3910    -3.6490 os         1 1UP      -0.316900
      9 C1           1.8590    -3.5940    -4.3610 c3         1 1UP       0.115700
     10 C10          1.8240     1.1920    -4.3130 ca         1 1UP      -0.020000
     11 C5           2.3680     1.1620    -5.6230 ca         1 1UP      -0.041000
     12 C4           2.6290    -0.0740    -6.2350 ca         1 1UP      -0.048000
     13 C3           2.3570    -1.2330    -5.5740 ca         1 1UP      -0.172000
     14 C9           1.5630     2.4260    -3.7010 ca         1 1UP      -0.024000
     15 C8           1.8370     3.5980    -4.3860 ca         1 1UP      -0.179900
     16 C14          1.5630     4.9030    -3.7460 ce         1 1UP       0.552800
     17 N3           1.8350     6.0730    -4.4230 nz         1 1UP      -0.802600
     18 N2           1.0660     4.9470    -2.5430 n2         1 1UP      -0.706100
     19 C7           2.3750     3.5570    -5.6840 ca         1 1UP      -0.162000
     20 C6           2.6360     2.3710    -6.2920 ca         1 1UP      -0.045000
     21 H1           2.7210     0.5450     1.0710 hn         1 1UP       0.482800
     22 H2           2.1280    -0.9400     1.4130 hn         1 1UP       0.482800
     23 H3           2.5880    -0.8950    -1.3580 h1         1 1UP       0.076200
     24 H4           2.5900     0.8740    -1.3680 h1         1 1UP       0.076200
     25 H5           1.6320    -4.4490    -3.7350 h1         1 1UP       0.063367
     26 H6           1.2600    -3.6370    -5.2620 h1         1 1UP       0.063367
     27 H7           2.9100    -3.6080    -4.6240 h1         1 1UP       0.063367
     28 H8           3.0430    -0.1060    -7.2350 ha         1 1UP       0.169000
     29 H9           2.5570    -2.1820    -6.0560 ha         1 1UP       0.174000
     30 H10          1.2790     2.4640    -2.6560 ha         1 1UP       0.157000
     31 H11          2.8110     6.1140    -4.6400 hn         1 1UP       0.471133
     32 H12          1.3030     6.1000    -5.2700 hn         1 1UP       0.471133
     33 H13          0.8810     5.8300    -2.1090 hn         1 1UP       0.438400
     34 H14          2.5830     4.4830    -6.2050 ha         1 1UP       0.115000
     35 H15          3.0500     2.3560    -7.2920 ha         1 1UP       0.169000
     36 H131         1.3140     0.4030     1.8830 hn         1 1UP       0.482800
     37 H33          1.5540     6.8550    -3.8640 hn         1 1UP       0.471133
@<TRIPOS>BOND
     1     5     4 1   
     2     5     6 1   
     3     3     2 1   
     4     1     2 2   
     5     2     4 1   
     6     8     7 1   
     7     8     9 1   
     8    18    16 2   
     9     6     7 ar  
    10     6    10 ar  
    11    14    10 ar  
    12    14    15 ar  
    13    16    17 1   
    14    16    15 1   
    15     7    13 ar  
    16    10    11 ar  
    17    15    19 ar  
    18    13    12 ar  
    19    11    12 ar  
    20    11    20 ar  
    21    19    20 ar  
    22     3    21 1   
    23     3    22 1   
    24     4    23 1   
    25     4    24 1   
    26     9    25 1   
    27     9    26 1   
    28     9    27 1   
    29    12    28 1   
    30    13    29 1   
    31    14    30 1   
    32    17    31 1   
    33    17    32 1   
    34    18    33 1   
    35    19    34 1   
    36    20    35 1   
    37    36     3 1   
    38    37    17 1   
@<TRIPOS>SUBSTRUCTURE
     1 1UP         1 TEMP              0 ****  ****    0 ROOT
