@<TRIPOS>MOLECULE
1UQ
   30    30     1     0     0
SMALL
bcc


@<TRIPOS>ATOM
      1 C2           0.0000     0.0000     0.0000 c          1 1UQ       0.620100
      2 O4           0.0350     0.0000    -2.3940 oh         1 1UQ      -0.440100
      3 C5          -2.1380     0.0000    -1.1670 c3         1 1UQ       0.089300
      4 C6           1.5080     0.0000     0.0000 c3         1 1UQ      -0.010300
      5 C19          5.6490     2.8470     4.1750 ca         1 1UQ      -0.161000
      6 C15          4.3360     2.4520     4.3460 ca         1 1UQ      -0.169500
      7 C14          3.7280     1.6440     3.3990 ca         1 1UQ      -0.078000
      8 C17          6.3570     2.4360     3.0580 ca         1 1UQ      -0.169500
      9 C16          5.9000     1.1830     2.4630 ca         1 1UQ      -0.078000
     10 C13          4.5260     1.0040     2.4480 ca         1 1UQ       0.018700
     11 C8           3.9140    -0.0010     1.5060 c3         1 1UQ       0.160500
     12 P9           4.5680    -1.6610     1.8800 p5         1 1UQ       0.409700
     13 O12          6.1680    -1.6610     1.6990 o          1 1UQ      -0.709500
     14 O11          4.2290    -2.0220     3.2740 o          1 1UQ      -0.709500
     15 O10          3.9130    -2.7340     0.8730 o          1 1UQ      -0.709500
     16 S7           2.1120     0.0000     1.7100 ss         1 1UQ      -0.368200
     17 O1          -0.6060     0.0050     1.0500 o          1 1UQ      -0.616100
     18 N3          -0.6730    -0.0000    -1.1670 n          1 1UQ      -0.064300
     19 H1          -0.1040     0.8200    -2.8370 ho         1 1UQ       0.370000
     20 H2          -2.4990     0.9480    -0.7870 h1         1 1UQ       0.001367
     21 H3          -2.4990    -0.8030    -0.5360 h1         1 1UQ       0.001367
     22 H4          -2.5000    -0.1450    -2.1780 h1         1 1UQ       0.001367
     23 H5           1.8690    -0.8550    -0.5580 h1         1 1UQ       0.052200
     24 H6           1.8690     0.9110    -0.4620 h1         1 1UQ       0.052200
     25 H9           2.6760     1.3830     3.4140 ha         1 1UQ       0.141000
     26 H10          7.4110     2.6850     3.0480 ha         1 1UQ       0.068500
     27 H11          6.5880     0.7320     1.7590 ha         1 1UQ       0.141000
     28 H12          4.1620     0.2630     0.4850 h1         1 1UQ       0.035700
     29 H7           5.9370     3.7910     4.6230 ha         1 1UQ       0.054000
     30 H8           3.7740     2.7970     5.2050 ha         1 1UQ       0.068500
@<TRIPOS>BOND
     1     1     4 1   
     2     1    17 2   
     3     1    18 1   
     4     2    18 1   
     5     2    19 1   
     6     3    18 1   
     7     3    20 1   
     8     3    21 1   
     9     3    22 1   
    10     4    16 1   
    11     4    23 1   
    12     4    24 1   
    13     5     6 ar  
    14     5     8 ar  
    15     5    29 1   
    16     6     7 ar  
    17     6    30 1   
    18     7    10 ar  
    19     7    25 1   
    20     8     9 ar  
    21     8    26 1   
    22     9    10 ar  
    23     9    27 1   
    24    10    11 1   
    25    11    12 1   
    26    11    16 1   
    27    11    28 1   
    28    12    13 1   
    29    12    14 1   
    30    12    15 1   
@<TRIPOS>SUBSTRUCTURE
     1 1UQ         1 TEMP              0 ****  ****    0 ROOT
