@<TRIPOS>MOLECULE
molecule
   31    31     1     0     0
SMALL
bcc


@<TRIPOS>ATOM
      1 C2           0.0000     0.0000     0.0000 c          1 1UQ       0.526100
      2 O4          -2.1150    -0.7660    -0.7570 oh         1 1UQ      -0.443300
      3 C5          -0.1170    -1.7410    -1.7670 c3         1 1UQ       0.077100
      4 C6           1.5920     0.0000     0.0000 c3         1 1UQ      -0.220300
      5 C19          2.2300    -4.9650     0.2580 ca         1 1UQ      -0.107000
      6 C15          2.5470    -4.8810     1.6110 ca         1 1UQ      -0.166000
      7 C14          2.5390    -3.7600     2.2310 ca         1 1UQ      -0.074000
      8 C17          1.6460    -3.6440    -0.1440 ca         1 1UQ      -0.166000
      9 C16          1.5960    -2.8360     0.6510 ca         1 1UQ      -0.074000
     10 C13          1.5870    -2.6460     1.6820 ca         1 1UQ      -0.133300
     11 C8           1.2520    -1.4020     2.4660 c3         1 1UQ       0.526500
     12 P9           1.5150    -1.5760     4.2350 p5         1 1UQ       1.021700
     13 O12          3.0130    -1.9590     4.6140 o          1 1UQ      -0.805833
     14 O11          0.5710    -2.6290     4.7730 o          1 1UQ      -0.805833
     15 O10          1.1870    -0.2770     4.8710 o          1 1UQ      -0.805833
     16 S7           2.2190     0.0000     1.8000 ss         1 1UQ      -0.511200
     17 O1          -0.5650     0.8100     0.7420 o          1 1UQ      -0.443100
     18 N3          -0.7510    -0.8330    -0.8200 nx         1 1UQ      -0.576700
     19 H1          -2.4350    -0.2170    -1.4530 ho         1 1UQ       0.412000
     20 H2           0.5100    -1.1750    -2.4450 hx         1 1UQ       0.055033
     21 H3           0.4890    -2.4590    -1.2280 hx         1 1UQ       0.055033
     22 H4          -0.8800    -2.2640    -2.3310 hx         1 1UQ       0.055033
     23 H5           1.9740    -1.0120     0.0650 h1         1 1UQ       0.159200
     24 H6           1.9740     0.4990    -0.8820 h1         1 1UQ       0.159200
     25 H9           2.7120    -3.8640     3.2950 ha         1 1UQ       0.183500
     26 H10          1.7780    -3.4090    -1.1930 ha         1 1UQ       0.128500
     27 H11          1.7910    -1.9150     0.1140 ha         1 1UQ       0.183500
     28 H12          0.2030    -1.1850     2.3090 h1         1 1UQ       0.185700
     29 H8           2.9830    -5.7440     2.0990 ha         1 1UQ       0.128500
     30 H31         -1.0660    -1.4880    -0.1320 hn         1 1UQ       0.359800
     31 H7           1.8220    -5.8830    -0.1470 ha         1 1UQ       0.118000
@<TRIPOS>BOND
     1    14    12 1   
     2    17     1 2   
     3    12    13 1   
     4    12    15 1   
     5    12    11 1   
     6    16    11 1   
     7    16     4 1   
     8    11    10 1   
     9     1     4 1   
    10     1    18 1   
    11     2    18 1   
    12    18     3 1   
    13    10     7 ar  
    14    10     9 ar  
    15     7     6 ar  
    16     9     8 ar  
    17     6     5 ar  
    18     8     5 ar  
    19     2    19 1   
    20     3    20 1   
    21     3    21 1   
    22     3    22 1   
    23     4    23 1   
    24     4    24 1   
    25     5    31 1   
    26     6    29 1   
    27     7    25 1   
    28     8    26 1   
    29     9    27 1   
    30    11    28 1   
    31    30    18 1   
@<TRIPOS>SUBSTRUCTURE
     1 1UQ         1 TEMP              0 ****  ****    0 ROOT
