@<TRIPOS>MOLECULE
1UR
   29    31     1     0     0
SMALL
bcc


@<TRIPOS>ATOM
      1 CAK         -0.0860    -0.2130     0.0810 cc         1 1UR      -0.364200
      2 CAL          1.3630    -0.1850    -0.0270 c          1 1UR       0.595900
      3 OAM          1.9730    -0.2870    -1.1040 o          1 1UR      -0.579100
      4 CAN          2.0590    -0.0270     1.2620 ca         1 1UR      -0.216600
      5 CAO          3.4590     0.0090     1.3450 ca         1 1UR      -0.051000
      6 CAP          4.0880     0.1560     2.5740 ca         1 1UR      -0.179000
      7 CAQ          3.3270     0.2690     3.7450 ca         1 1UR      -0.088000
      8 CAR          1.9410     0.2360     3.6960 ca         1 1UR      -0.162000
      9 CAS          1.3110     0.0870     2.4440 ca         1 1UR       0.150100
     10 OAT         -0.0700     0.0680     2.4770 os         1 1UR      -0.221200
     11 CAJ         -0.7380    -0.0860     1.2660 cd         1 1UR       0.243900
     12 CAG         -2.1830    -0.0980     1.4540 ca         1 1UR      -0.134800
     13 CAF         -3.0310     0.2520     0.3890 ca         1 1UR      -0.110500
     14 CAE         -4.4110     0.2300     0.5620 ca         1 1UR      -0.123000
     15 CAD         -4.9720    -0.1370     1.7910 ca         1 1UR      -0.087600
     16 CAB         -6.4860    -0.1590     1.9730 c          1 1UR       0.905200
     17 OAC         -6.9340    -0.5020     3.1020 o          1 1UR      -0.820300
     18 OAA         -7.1990     0.1670     0.9850 o          1 1UR      -0.820300
     19 CAI         -4.1250    -0.4800     2.8510 ca         1 1UR      -0.123000
     20 CAH         -2.7440    -0.4600     2.6900 ca         1 1UR      -0.110500
     21 H1          -0.6510    -0.3530    -0.8520 ha         1 1UR       0.169000
     22 H2           4.0410    -0.0810     0.4130 ha         1 1UR       0.154000
     23 H3           5.1850     0.1840     2.6320 ha         1 1UR       0.130000
     24 H4           3.8330     0.3860     4.7150 ha         1 1UR       0.129000
     25 H5           1.3270     0.3250     4.6030 ha         1 1UR       0.153000
     26 H6          -2.6030     0.5520    -0.5780 ha         1 1UR       0.120500
     27 H7          -5.0940     0.5010    -0.2600 ha         1 1UR       0.160000
     28 H9          -4.5850    -0.7660     3.8120 ha         1 1UR       0.160000
     29 H10         -2.0830    -0.7280     3.5270 ha         1 1UR       0.120500
@<TRIPOS>BOND
     1     1     2 1   
     2     1    11 2   
     3     1    21 1   
     4     2     3 2   
     5     2     4 1   
     6     4     5 ar  
     7     4     9 ar  
     8     5     6 ar  
     9     5    22 1   
    10     6     7 ar  
    11     6    23 1   
    12     7     8 ar  
    13     7    24 1   
    14     8     9 ar  
    15     8    25 1   
    16     9    10 1   
    17    10    11 1   
    18    11    12 1   
    19    12    13 ar  
    20    12    20 ar  
    21    13    14 ar  
    22    13    26 1   
    23    14    15 ar  
    24    14    27 1   
    25    15    16 1   
    26    15    19 ar  
    27    16    17 1   
    28    16    18 1   
    29    19    20 ar  
    30    19    28 1   
    31    20    29 1   
@<TRIPOS>SUBSTRUCTURE
     1 1UR         1 TEMP              0 ****  ****    0 ROOT
