@<TRIPOS>MOLECULE
molecule
   29    31     1     0     0
SMALL
bcc


@<TRIPOS>ATOM
      1 CAK          0.0000     0.0000     0.0000 cc         1 1UR      -0.383200
      2 CAL          1.4170     0.0000     0.0000 c          1 1UR       0.590900
      3 OAM          2.0510     0.0000    -1.0410 o          1 1UR      -0.578100
      4 CAN          2.0940     0.0000     1.3120 ca         1 1UR      -0.228600
      5 CAO          3.4840    -0.0000     1.4100 ca         1 1UR      -0.045000
      6 CAP          4.0790     0.0010     2.6530 ca         1 1UR      -0.179000
      7 CAQ          3.2990     0.0000     3.8010 ca         1 1UR      -0.085000
      8 CAR          1.9230    -0.0010     3.7170 ca         1 1UR      -0.160000
      9 CAS          1.3050    -0.0010     2.4720 ca         1 1UR       0.165100
     10 OAT         -0.0400    -0.0020     2.3680 os         1 1UR      -0.210200
     11 CAJ         -0.6690     0.0040     1.1840 cd         1 1UR       0.243900
     12 CAG         -2.1470     0.0030     1.1630 ca         1 1UR      -0.121800
     13 CAF         -2.8620    -0.0030     2.3630 ca         1 1UR      -0.114500
     14 CAE         -4.2380    -0.0050     2.3440 ca         1 1UR      -0.113000
     15 CAD         -4.9200     0.0010     1.1250 ca         1 1UR      -0.065600
     16 CAB         -6.3970    -0.0070     1.1050 c          1 1UR       0.875200
     17 OAC         -6.9910    -0.0060     0.0450 o          1 1UR      -0.826800
     18 OAA         -7.0870    -0.0130     2.2620 o          1 1UR      -0.826800
     19 CAI         -4.2050     0.0080    -0.0750 ca         1 1UR      -0.113000
     20 CAH         -2.8290     0.0150    -0.0570 ca         1 1UR      -0.114500
     21 H1          -0.5460     0.0050    -0.9360 ha         1 1UR       0.174000
     22 H2           4.0940     0.0000     0.5140 ha         1 1UR       0.152000
     23 H3           5.1590     0.0020     2.7350 ha         1 1UR       0.128000
     24 H4           3.7770     0.0010     4.7730 ha         1 1UR       0.129000
     25 H5           1.3250    -0.0010     4.6200 ha         1 1UR       0.146000
     26 H6          -2.3330    -0.0090     3.3090 ha         1 1UR       0.122000
     27 H7          -4.7920    -0.0110     3.2750 ha         1 1UR       0.158500
     28 H9          -4.7340     0.0150    -1.0200 ha         1 1UR       0.158500
     29 H10         -2.2740     0.0200    -0.9870 ha         1 1UR       0.122000
@<TRIPOS>BOND
     1    17    16 1   
     2    18    16 1   
     3    16    15 1   
     4    15    19 ar  
     5    15    14 ar  
     6    19    20 ar  
     7    14    13 ar  
     8    20    12 ar  
     9    13    12 ar  
    10    12    11 1   
    11    11    10 1   
    12    11     1 2   
    13    10     9 1   
    14     1     2 1   
    15     9     8 ar  
    16     9     4 ar  
    17     8     7 ar  
    18     2     4 1   
    19     2     3 2   
    20     4     5 ar  
    21     7     6 ar  
    22     5     6 ar  
    23     1    21 1   
    24     5    22 1   
    25     6    23 1   
    26     7    24 1   
    27     8    25 1   
    28    13    26 1   
    29    14    27 1   
    30    19    28 1   
    31    20    29 1   
@<TRIPOS>SUBSTRUCTURE
     1 1UR         1 TEMP              0 ****  ****    0 ROOT
