@<TRIPOS>MOLECULE
1UR
   29    31     1     0     0
SMALL
bcc


@<TRIPOS>ATOM
      1 CAK         0.0850    0.2460   -0.0890 cc        1 1UR     -0.364200
      2 CAL         1.5380    0.2610   -0.0740 c         1 1UR      0.595900
      3 OAM         2.2330    0.4130   -1.0920 o         1 1UR     -0.579100
      4 CAN         2.1270    0.0820    1.2650 ca        1 1UR     -0.216600
      5 CAO         3.5160    0.0820    1.4660 ca        1 1UR     -0.051000
      6 CAP         4.0420   -0.0850    2.7390 ca        1 1UR     -0.179000
      7 CAQ         3.1890   -0.2570    3.8370 ca        1 1UR     -0.088000
      8 CAR         1.8120   -0.2610    3.6710 ca        1 1UR     -0.162000
      9 CAS         1.2850   -0.0900    2.3740 ca        1 1UR      0.150100
     10 OAT        -0.0930   -0.1110    2.2900 os        1 1UR     -0.221200
     11 CAJ        -0.6610    0.0640    1.0310 cd        1 1UR      0.243900
     12 CAG        -2.1170    0.0290    1.0950 ca        1 1UR     -0.134800
     13 CAF        -2.7910    0.3350    2.2890 ca        1 1UR     -0.110500
     14 CAE        -4.1810    0.3120    2.3330 ca        1 1UR     -0.123000
     15 CAD        -4.9240   -0.0190    1.1940 ca        1 1UR     -0.087600
     16 CAB        -6.4480   -0.0440    1.2470 c         1 1UR      0.905200
     17 OAC        -7.0650   -0.3550    0.1910 o         1 1UR     -0.820300
     18 OAA        -7.0000    0.2480    2.3440 o         1 1UR     -0.820300
     19 CAI        -4.2500   -0.3290    0.0070 ca        1 1UR     -0.123000
     20 CAH        -2.8610   -0.3080   -0.0480 ca        1 1UR     -0.110500
     21 H1         -0.4030    0.4000   -1.0630 ha        1 1UR      0.169000
     22 H2          4.1710    0.2180    0.5900 ha        1 1UR      0.154000
     23 H3          5.1310   -0.0850    2.8900 ha        1 1UR      0.130000
     24 H4          3.6150   -0.3890    4.8430 ha        1 1UR      0.129000
     25 H5          1.1270   -0.3950    4.5190 ha        1 1UR      0.153000
     26 H6         -2.2110    0.5930    3.1880 ha        1 1UR      0.120500
     27 H7         -4.7280    0.5530    3.2590 ha        1 1UR      0.160000
     28 H9         -4.8530   -0.5920   -0.8780 ha        1 1UR      0.160000
     29 H10        -2.3440   -0.5640   -0.9840 ha        1 1UR      0.120500
@<TRIPOS>BOND
     1    1    2 1   
     2    1   11 2   
     3    1   21 1   
     4    2    3 2   
     5    2    4 1   
     6    4    5 ar  
     7    4    9 ar  
     8    5    6 ar  
     9    5   22 1   
    10    6    7 ar  
    11    6   23 1   
    12    7    8 ar  
    13    7   24 1   
    14    8    9 ar  
    15    8   25 1   
    16    9   10 1   
    17   10   11 1   
    18   11   12 1   
    19   12   13 ar  
    20   12   20 ar  
    21   13   14 ar  
    22   13   26 1   
    23   14   15 ar  
    24   14   27 1   
    25   15   16 1   
    26   15   19 ar  
    27   16   17 1   
    28   16   18 1   
    29   19   20 ar  
    30   19   28 1   
    31   20   29 1   
@<TRIPOS>SUBSTRUCTURE
     1 1UR         1 TEMP              0 ****  ****    0 ROOT
