@<TRIPOS>MOLECULE
molecule
   42    43     1     0     0
SMALL
bcc


@<TRIPOS>ATOM
      1 C10          0.0000     0.0000     0.0000 c3         1 1US      -0.081400
      2 C15          6.7920     0.0860    -6.9600 ca         1 1US       0.151100
      3 C17          8.6570     0.3000    -8.4530 ca         1 1US      -0.091000
      4 C20          7.6610     0.0720    -5.8800 ca         1 1US      -0.194000
      5 C01          4.3110    -1.1980    -3.5110 ca         1 1US      -0.135000
      6 C02          4.7710    -1.2030    -4.8160 ca         1 1US      -0.116000
      7 C03          4.9980    -0.0050    -5.4750 ca         1 1US       0.073100
      8 C04          4.7620     1.2010    -4.8220 ca         1 1US       0.107100
      9 C05          4.3000     1.1980    -3.5150 ca         1 1US      -0.169000
     10 C06          4.0710    -0.0000    -2.8650 ca         1 1US      -0.059300
     11 C07          3.5690     0.0000    -1.4440 c3         1 1US      -0.039100
     12 C08          2.0390    -0.0000    -1.4430 c3         1 1US      -0.077400
     13 C09          1.5300     0.0000     0.0000 c3         1 1US      -0.083400
     14 O14          5.4510    -0.0090    -6.7570 os         1 1US      -0.228200
     15 C16          7.2930     0.2030    -8.2500 ca         1 1US       0.002400
     16 C18          9.5210     0.2810    -7.3740 ca         1 1US      -0.157000
     17 C19          9.0230     0.1690    -6.0880 ca         1 1US      -0.092000
     18 Cl1          6.2080     0.2270    -9.6050 cl         1 1US      -0.097400
     19 H1          -0.3610    -0.8850    -0.5110 hc         1 1US       0.042200
     20 H2          -0.3610     0.8850    -0.5110 hc         1 1US       0.042200
     21 H4           9.0490     0.3890    -9.4590 ha         1 1US       0.146000
     22 H5           7.2720    -0.0160    -4.8730 ha         1 1US       0.149000
     23 H6           4.1320    -2.1340    -2.9980 ha         1 1US       0.139000
     24 H7           4.9570    -2.1430    -5.3210 ha         1 1US       0.150000
     25 H8           4.1130     2.1350    -3.0050 ha         1 1US       0.144000
     26 H9           3.9310    -0.8840    -0.9330 hc         1 1US       0.051700
     27 H10          3.9310     0.8850    -0.9340 hc         1 1US       0.051700
     28 H11          1.6780    -0.8850    -1.9530 hc         1 1US       0.045700
     29 H12          1.8910    -0.8850     0.5110 hc         1 1US       0.041700
     30 H13          4.1670     2.8410    -5.5630 ho         1 1US       0.425000
     31 H14         10.5890     0.3570    -7.5350 ha         1 1US       0.136000
     32 H15          9.7020     0.1560    -5.2440 ha         1 1US       0.134000
     33 C11         -0.5100     0.0000     1.4430 c3         1 1US      -0.084400
     34 C12         -2.0390    -0.0000     1.4440 c3         1 1US      -0.092100
     35 H3           1.6780     0.8840    -1.9530 hc         1 1US       0.045700
     36 H16          1.8910     0.8850     0.5110 hc         1 1US       0.041700
     37 H17         -0.1480     0.8850     1.9540 hc         1 1US       0.039700
     38 H18         -0.1480    -0.8840     1.9540 hc         1 1US       0.039700
     39 H19         -2.4000    -0.0000     2.4660 hc         1 1US       0.033033
     40 H20         -2.4000    -0.8840     0.9330 hc         1 1US       0.033033
     41 H21         -2.4010     0.8850     0.9340 hc         1 1US       0.033033
     42 O13          4.9830     2.3790    -5.4650 oh         1 1US      -0.504100
@<TRIPOS>BOND
     1    16     3 ar  
     2    16    17 ar  
     3     3    15 ar  
     4    17     4 ar  
     5    15    18 1   
     6    15     2 ar  
     7    42     8 1   
     8     4     2 ar  
     9     2    14 1   
    10    14     7 1   
    11     8     7 ar  
    12     8     9 ar  
    13     7     6 ar  
    14     9    10 ar  
    15     6     5 ar  
    16    10     5 ar  
    17    10    11 1   
    18    12    11 1   
    19    12    13 1   
    20     1    13 1   
    21     1    19 1   
    22     1    20 1   
    23     3    21 1   
    24     4    22 1   
    25     5    23 1   
    26     6    24 1   
    27     9    25 1   
    28    11    26 1   
    29    11    27 1   
    30    12    28 1   
    31    13    29 1   
    32    42    30 1   
    33    16    31 1   
    34    17    32 1   
    35     1    33 1   
    36    33    34 1   
    37    12    35 1   
    38    13    36 1   
    39    33    37 1   
    40    33    38 1   
    41    34    39 1   
    42    34    40 1   
    43    34    41 1   
@<TRIPOS>SUBSTRUCTURE
     1 1US         1 TEMP              0 ****  ****    0 ROOT
