@<TRIPOS>MOLECULE
1US
   42    38     1     0     0
SMALL
bcc


@<TRIPOS>ATOM
      1 C10        -0.3750    0.4040   -0.9360 c3        1 1US     -0.113000
      2 C15         7.2240    0.2260   -6.5220 c2        1 1US      0.058000
      3 C17         8.6100    1.2550   -8.2420 c1        1 1US     -0.011000
      4 C20         7.6360    0.9560   -5.4810 c2        1 1US     -0.271000
      5 C01         4.6180   -1.4870   -3.3530 ca        1 1US     -0.162000
      6 C02         5.4960   -1.3850   -4.4300 ca        1 1US     -0.100000
      7 C03         5.2290   -0.4760   -5.4590 ca        1 1US      0.008000
      8 C04         4.0780    0.3390   -5.4030 ca        1 1US      0.084000
      9 C05         3.2000    0.2240   -4.3140 ca        1 1US     -0.213000
     10 C06         3.4770   -0.6860   -3.2980 ca        1 1US     -0.092000
     11 C07         2.5020   -2.2530    0.0950 c3        1 1US     -0.113000
     12 C08         1.4910   -1.3150   -0.2690 c1        1 1US     -0.173000
     13 C09         0.6400   -0.5270   -0.5690 c1        1 1US     -0.173000
     14 O14         6.0150   -0.4660   -6.6080 os        1 1US     -0.154000
     15 C16         7.9810    0.0260   -7.8010 c3        1 1US     -0.042000
     16 C18         9.9560    1.3670   -8.6380 c2        1 1US     -0.529000
     17 C19        10.4770    2.5000   -9.0950 c1        1 1US      0.390000
     18 CL1         9.0350   -1.4180   -7.6120 cl        1 1US     -0.178000
     19 H1         -0.7880    0.1570   -1.9490 hc        1 1US      0.095833
     20 H2          0.0380    1.4470   -0.9700 hc        1 1US      0.095833
     21 H4          7.2580   -0.2680   -8.6250 h1        1 1US      0.185000
     22 H5          7.0380    1.0670   -4.5690 ha        1 1US      0.133500
     23 H6          4.8260   -2.2030   -2.5450 ha        1 1US      0.136000
     24 H7          6.3970   -2.0150   -4.4890 ha        1 1US      0.153000
     25 H8          2.2990    0.8530   -4.2680 ha        1 1US      0.138000
     26 H9          3.2940   -2.3030   -0.6990 hc        1 1US      0.095833
     27 H10         2.7850   -0.7730   -2.4420 ha        1 1US      0.145000
     28 H11         0.3700    2.0660   -3.8900 ha        1 1US      0.000750
     29 H12         2.0620   -3.2760    0.2210 hc        1 1US      0.095833
     30 H13         3.0370    1.6810   -6.2690 ho        1 1US      0.217000
     31 H14        10.6420    0.4850   -8.5710 ha        1 1US      0.197000
     32 H15         8.5950    1.4860   -5.5000 ha        1 1US      0.133500
     33 C11         0.6820    1.4470    2.4940 c2        1 1US     -0.565000
     34 C12         1.5250    1.0310    3.3970 c1        1 1US      0.173000
     35 H3          2.9870   -1.9550    1.0610 hc        1 1US      0.095833
     36 H16         0.2460    1.7450   -3.3070 ha        1 1US      0.000750
     37 H17         0.5480    0.9460    1.5170 ha        1 1US      0.194500
     38 H18        -1.2170    0.3830   -0.1950 hc        1 1US      0.095833
     39 H19        -1.2120    2.5520    0.6770 ha        1 1US      0.000750
     40 H20         0.0290    2.3260    2.6130 ha        1 1US      0.194500
     41 H21        -1.6020    3.0990    0.7700 ha        1 1US      0.000750
     42 O13         3.8700    1.2140   -6.4390 oh        1 1US     -0.228000
@<TRIPOS>BOND
     1    1   13 1   
     2    1   19 1   
     3    1   20 1   
     4    1   38 1   
     5    2    4 1   
     6    2   14 1   
     7    2   15 1   
     8    3   15 1   
     9    3   16 1   
    10    4   22 1   
    11    4   32 1   
    12    5    6 1   
    13    5   10 1   
    14    5   23 1   
    15    6    7 1   
    16    6   24 1   
    17    7    8 1   
    18    7   14 1   
    19    8    9 1   
    20    8   42 1   
    21    9   10 1   
    22    9   25 1   
    23   10   27 1   
    24   11   12 1   
    25   11   26 1   
    26   11   29 1   
    27   11   35 1   
    28   12   13 1   
    29   15   18 1   
    30   15   21 1   
    31   16   17 1   
    32   16   31 1   
    33   28   36 1   
    34   30   42 1   
    35   33   34 1   
    36   33   37 1   
    37   33   40 1   
    38   39   41 1   
@<TRIPOS>SUBSTRUCTURE
     1 1US         1 TEMP              0 ****  ****    0 ROOT
