@<TRIPOS>MOLECULE
1UT
   35    37     1     0     0
SMALL
bcc


@<TRIPOS>ATOM
      1 CAA          0.0000     0.0000     0.0000 c3         1 1UT       0.208600
      2 NAB          1.4640     0.0000     0.0000 nh         1 1UT      -0.381000
      3 CAC          2.1970     0.0000     1.2690 c3         1 1UT       0.208600
      4 CAD          2.1600     0.0000    -1.2060 ca         1 1UT       0.099600
      5 CAI          3.5530    -0.0000    -1.2030 ca         1 1UT      -0.201500
      6 CAH          4.2440    -0.0010    -2.3930 ca         1 1UT      -0.012500
      7 CAE          1.4630    -0.0070    -2.4090 ca         1 1UT      -0.201500
      8 CAF          2.1470    -0.0070    -3.6040 ca         1 1UT      -0.012500
      9 CAG          3.5460    -0.0010    -3.6050 ca         1 1UT      -0.153800
     10 CAJ          4.2830    -0.0010    -4.8820 cc         1 1UT       0.243900
     11 OAT          3.5870    -0.0070    -6.0290 os         1 1UT      -0.181200
     12 CAS          4.1870    -0.0060    -7.2370 ca         1 1UT       0.162100
     13 CAR          3.4370    -0.0130    -8.4070 ca         1 1UT      -0.145000
     14 CAQ          4.0700    -0.0130    -9.6310 ca         1 1UT      -0.043000
     15 CAP          5.4550    -0.0080    -9.7110 ca         1 1UT      -0.148000
     16 CAO          6.2170    -0.0020    -8.5640 ca         1 1UT      -0.002000
     17 CAN          5.5880    -0.0000    -7.3200 ca         1 1UT      -0.241600
     18 CAL          6.3680     0.0050    -6.0660 c          1 1UT       0.649900
     19 OAM          7.5880     0.0100    -6.0780 o          1 1UT      -0.593100
     20 CAK          5.6450     0.0100    -4.8520 cd         1 1UT      -0.369200
     21 H1          -0.3610     0.0050     1.0210 h1         1 1UT       0.007367
     22 H2          -0.3610    -0.8870    -0.5060 h1         1 1UT       0.007367
     23 H3          -0.3610     0.8820    -0.5150 h1         1 1UT       0.007367
     24 H4           1.4940    -0.0000     2.0920 h1         1 1UT       0.007367
     25 H5           2.8200    -0.8840     1.3260 h1         1 1UT       0.007367
     26 H6           2.8200     0.8850     1.3260 h1         1 1UT       0.007367
     27 H7           4.0920    -0.0000    -0.2640 ha         1 1UT       0.119500
     28 H8           5.3270     0.0010    -2.3910 ha         1 1UT       0.113000
     29 H9           0.3800    -0.0110    -2.4060 ha         1 1UT       0.119500
     30 H10          1.6030    -0.0090    -4.5400 ha         1 1UT       0.113000
     31 H11          2.3550    -0.0170    -8.3570 ha         1 1UT       0.117000
     32 H12          3.4800    -0.0180   -10.5400 ha         1 1UT       0.103000
     33 H13          5.9390    -0.0080   -10.6800 ha         1 1UT       0.109000
     34 H14          7.2980     0.0030    -8.6280 ha         1 1UT       0.125000
     35 H15          6.1640     0.1540    -3.9130 ha         1 1UT       0.151000
@<TRIPOS>BOND
     1     1     2 1   
     2     1    21 1   
     3     1    22 1   
     4     1    23 1   
     5     2     3 1   
     6     2     4 1   
     7     3    24 1   
     8     3    25 1   
     9     3    26 1   
    10     4     5 ar  
    11     4     7 ar  
    12     5     6 ar  
    13     5    27 1   
    14     6     9 ar  
    15     6    28 1   
    16     7     8 ar  
    17     7    29 1   
    18     8     9 ar  
    19     8    30 1   
    20     9    10 1   
    21    10    11 1   
    22    10    20 2   
    23    11    12 1   
    24    12    13 ar  
    25    12    17 ar  
    26    13    14 ar  
    27    13    31 1   
    28    14    15 ar  
    29    14    32 1   
    30    15    16 ar  
    31    15    33 1   
    32    16    17 ar  
    33    16    34 1   
    34    17    18 1   
    35    18    19 2   
    36    18    20 1   
    37    20    35 1   
@<TRIPOS>SUBSTRUCTURE
     1 1UT         1 TEMP              0 ****  ****    0 ROOT
