@<TRIPOS>MOLECULE
1UT
   35    37     1     0     0
SMALL
bcc


@<TRIPOS>ATOM
      1 CAA          0.0430    -0.0420    -0.0090 c3         1 1UT       0.190600
      2 NAB          1.4680     0.1620    -0.0240 nh         1 1UT      -0.664000
      3 CAC          2.1470     0.1360     1.2440 c3         1 1UT       0.190600
      4 CAD          2.1790    -0.2320    -1.1630 ca         1 1UT       0.196600
      5 CAI          1.5150    -0.4870    -2.3920 ca         1 1UT      -0.205500
      6 CAH          2.2330    -0.7950    -3.5370 ca         1 1UT      -0.051000
      7 CAE          3.5950    -0.3310    -1.1490 ca         1 1UT      -0.205500
      8 CAF          4.2990    -0.6380    -2.3030 ca         1 1UT      -0.051000
      9 CAG          3.6330    -0.8690    -3.5150 ca         1 1UT      -0.134800
     10 CAJ          4.3900    -1.1760    -4.7250 cc         1 1UT       0.214900
     11 OAT          3.6240    -1.9020    -5.6290 os         1 1UT      -0.228200
     12 CAS          4.2260    -2.2530    -6.8270 ca         1 1UT       0.143100
     13 CAR          3.4120    -2.9820    -7.7150 ca         1 1UT      -0.161000
     14 CAQ          3.9450    -3.3730    -8.9360 ca         1 1UT      -0.080000
     15 CAP          5.2640    -3.0500    -9.2780 ca         1 1UT      -0.167000
     16 CAO          6.0590    -2.3310    -8.3950 ca         1 1UT      -0.047000
     17 CAN          5.5500    -1.9220    -7.1530 ca         1 1UT      -0.214600
     18 CAL          6.3680    -1.1580    -6.1980 c          1 1UT       0.591900
     19 OAM          7.5450    -0.8380    -6.4220 o          1 1UT      -0.551100
     20 CAK          5.6710    -0.8080    -4.9650 cd         1 1UT      -0.333200
     21 H1          -0.3740     0.2420     0.9930 h1         1 1UT       0.040700
     22 H2          -0.4300     0.6160    -0.7860 h1         1 1UT       0.040700
     23 H3          -0.2350    -1.1100    -0.2230 h1         1 1UT       0.040700
     24 H4           1.4340     0.4100     2.0660 h1         1 1UT       0.040700
     25 H5           2.9770     0.8930     1.2320 h1         1 1UT       0.040700
     26 H6           2.5840    -0.8750     1.4710 h1         1 1UT       0.040700
     27 H7           0.4180    -0.4400    -2.4590 ha         1 1UT       0.138500
     28 H8           1.6970    -0.9880    -4.4810 ha         1 1UT       0.143000
     29 H9           4.1600    -0.1610    -0.2210 ha         1 1UT       0.138500
     30 H10          5.3980    -0.7100    -2.2590 ha         1 1UT       0.143000
     31 H11          2.3800    -3.2280    -7.4310 ha         1 1UT       0.152000
     32 H12          3.3220    -3.9430    -9.6420 ha         1 1UT       0.138000
     33 H13          5.6690    -3.3690   -10.2490 ha         1 1UT       0.140000
     34 H14          7.1000    -2.0690    -8.6470 ha         1 1UT       0.160000
     35 H15          6.2360    -0.2160    -4.2300 ha         1 1UT       0.167000
@<TRIPOS>BOND
     1     1     2 1   
     2     1    21 1   
     3     1    22 1   
     4     1    23 1   
     5     2     3 1   
     6     2     4 1   
     7     3    24 1   
     8     3    25 1   
     9     3    26 1   
    10     4     5 ar  
    11     4     7 ar  
    12     5     6 ar  
    13     5    27 1   
    14     6     9 ar  
    15     6    28 1   
    16     7     8 ar  
    17     7    29 1   
    18     8     9 ar  
    19     8    30 1   
    20     9    10 1   
    21    10    11 1   
    22    10    20 2   
    23    11    12 1   
    24    12    13 ar  
    25    12    17 ar  
    26    13    14 ar  
    27    13    31 1   
    28    14    15 ar  
    29    14    32 1   
    30    15    16 ar  
    31    15    33 1   
    32    16    17 ar  
    33    16    34 1   
    34    17    18 1   
    35    18    19 2   
    36    18    20 1   
    37    20    35 1   
@<TRIPOS>SUBSTRUCTURE
     1 1UT         1 TEMP              0 ****  ****    0 ROOT
