@<TRIPOS>MOLECULE
molecule
   35    37     1     0     0
SMALL
bcc


@<TRIPOS>ATOM
      1 CAA          0.0000     0.0000     0.0000 c3         1 1UT       0.228100
      2 NAB          1.4640     0.0000     0.0000 nh         1 1UT      -0.730000
      3 CAC          2.1970     0.0000     1.2690 c3         1 1UT       0.228100
      4 CAD          2.1600     0.0000    -1.2060 ca         1 1UT       0.227600
      5 CAI          3.5530    -0.0000    -1.2030 ca         1 1UT      -0.216500
      6 CAH          4.2440    -0.0010    -2.3930 ca         1 1UT      -0.042000
      7 CAE          1.4630    -0.0070    -2.4090 ca         1 1UT      -0.216500
      8 CAF          2.1470    -0.0070    -3.6040 ca         1 1UT      -0.042000
      9 CAG          3.5460    -0.0010    -3.6050 ca         1 1UT      -0.141800
     10 CAJ          4.2830    -0.0010    -4.8820 cc         1 1UT       0.228900
     11 OAT          3.5870    -0.0070    -6.0290 os         1 1UT      -0.217200
     12 CAS          4.1870    -0.0060    -7.2370 ca         1 1UT       0.157100
     13 CAR          3.4370    -0.0130    -8.4070 ca         1 1UT      -0.158000
     14 CAQ          4.0700    -0.0130    -9.6310 ca         1 1UT      -0.078000
     15 CAP          5.4550    -0.0080    -9.7110 ca         1 1UT      -0.167000
     16 CAO          6.2170    -0.0020    -8.5640 ca         1 1UT      -0.041000
     17 CAN          5.5880    -0.0000    -7.3200 ca         1 1UT      -0.227600
     18 CAL          6.3680     0.0050    -6.0660 c          1 1UT       0.587900
     19 OAM          7.5880     0.0100    -6.0780 o          1 1UT      -0.557100
     20 CAK          5.6450     0.0100    -4.8520 cd         1 1UT      -0.362200
     21 H1          -0.3610     0.0050     1.0210 h1         1 1UT       0.038367
     22 H2          -0.3610    -0.8870    -0.5060 h1         1 1UT       0.038367
     23 H3          -0.3610     0.8820    -0.5150 h1         1 1UT       0.038367
     24 H4           1.4940    -0.0000     2.0920 h1         1 1UT       0.038367
     25 H5           2.8200    -0.8840     1.3260 h1         1 1UT       0.038367
     26 H6           2.8200     0.8850     1.3260 h1         1 1UT       0.038367
     27 H7           4.0920    -0.0000    -0.2640 ha         1 1UT       0.138000
     28 H8           5.3270     0.0010    -2.3910 ha         1 1UT       0.143500
     29 H9           0.3800    -0.0110    -2.4060 ha         1 1UT       0.138000
     30 H10          1.6030    -0.0090    -4.5400 ha         1 1UT       0.143500
     31 H11          2.3550    -0.0170    -8.3570 ha         1 1UT       0.145000
     32 H12          3.4800    -0.0180   -10.5400 ha         1 1UT       0.137000
     33 H13          5.9390    -0.0080   -10.6800 ha         1 1UT       0.137000
     34 H14          7.2980     0.0030    -8.6280 ha         1 1UT       0.158000
     35 H15          6.1640     0.1540    -3.9130 ha         1 1UT       0.167000
@<TRIPOS>BOND
     1    15    16 ar
     2    15    14 ar
     3    16    17 ar
     4    14    13 ar
     5    19    18 2
     6    17    18 1
     7    17    12 ar
     8    18    20 1
     9    13    12 ar
    10    12    11 1
    11    20    10 2
    12    11    10 1
    13    10     9 1
    14     9     8 ar
    15     9     6 ar
    16     8     7 ar
    17     6     5 ar
    18     7     4 ar
    19     5     4 ar
    20     4     2 1
    21     2     3 1
    22     2     1 1
    23     1    21 1
    24     1    22 1
    25     1    23 1
    26     3    24 1
    27     3    25 1
    28     3    26 1
    29     5    27 1
    30     6    28 1
    31     7    29 1
    32     8    30 1
    33    13    31 1
    34    14    32 1
    35    15    33 1
    36    16    34 1
    37    20    35 1
@<TRIPOS>SUBSTRUCTURE
     1 1UT         1 TEMP              0 ****  ****    0 ROOT
