@<TRIPOS>MOLECULE
1UV
   47    51     1     0     0
SMALL
bcc


@<TRIPOS>ATOM
      1 N01          0.0000     0.0000     0.0000 na         1 1UV      -0.012800
      2 C02         -0.6420     0.5870    -1.1790 cx         1 1UV      -0.016500
      3 C03         -0.4530     2.0870    -1.4130 cx         1 1UV      -0.075400
      4 C04          0.2660     1.0770    -2.3080 cx         1 1UV      -0.075400
      5 C05          1.3440     0.0000     0.0000 cc         1 1UV      -0.165000
      6 C06          2.0600     0.0000     1.1780 cd         1 1UV      -0.180400
      7 C07          3.5270     0.0140     1.1740 c          1 1UV       0.969800
      8 O08          4.2050     0.0130     2.3390 o          1 1UV      -0.855800
      9 O09          4.1320     0.0270     0.1200 o          1 1UV      -0.855800
     10 C10          1.3060    -0.0240     2.4450 c          1 1UV       0.596900
     11 O11          1.8540     0.1670     3.5170 o          1 1UV      -0.489100
     12 C12         -0.1330    -0.3120     2.3550 ca         1 1UV      -0.170600
     13 C13         -0.7360    -0.4130     1.0820 ca         1 1UV       0.048600
     14 C14         -1.9970    -1.0120     0.9920 ca         1 1UV      -0.198300
     15 C15         -2.3610    -1.5970    -0.3500 c3         1 1UV       0.278700
     16 O16         -3.1780    -2.7180    -0.2720 os         1 1UV      -0.372600
     17 C17         -4.5320    -2.6120     0.0820 c3         1 1UV       0.173400
     18 C18         -4.7070    -2.6410     1.5840 c3         1 1UV       0.109500
     19 N19         -4.0890    -1.4980     2.2200 nh         1 1UV      -0.354000
     20 C20         -5.0630    -0.3870     2.1500 c3         1 1UV       0.151800
     21 C21         -6.4340    -1.0710     2.3470 c3         1 1UV      -0.026400
     22 C22         -6.2080    -2.5450     1.9430 c3         1 1UV      -0.089500
     23 N23         -7.0650    -2.8970     0.8060 nz         1 1UV       0.064400
     24 C24         -2.7920    -1.1160     2.1060 ca         1 1UV       0.002600
     25 C25         -2.2140    -0.8150     3.3730 ca         1 1UV       0.029900
     26 F26         -2.9860    -0.8940     4.4770 f          1 1UV      -0.135900
     27 C27         -0.9170    -0.4530     3.5000 ca         1 1UV      -0.023000
     28 H021        -1.5980     0.1950    -1.5030 h1         1 1UV       0.064700
     29 H032        -1.2930     2.5990    -1.8670 hc         1 1UV       0.060700
     30 H031         0.1720     2.5980    -0.6900 hc         1 1UV       0.060700
     31 H042        -0.1340     0.9710    -3.3090 hc         1 1UV       0.060700
     32 H041         1.3300     0.9700    -2.1330 hc         1 1UV       0.060700
     33 H051         1.8750    -0.0110    -0.9440 h4         1 1UV       0.171000
     34 H152        -1.4480    -1.8720    -0.8640 h1         1 1UV       0.027700
     35 H151        -2.8730    -0.8370    -0.9280 h1         1 1UV       0.027700
     36 H171        -4.9270    -1.6800    -0.3030 h1         1 1UV      -0.011800
     37 H172        -5.0770    -3.4410    -0.3530 h1         1 1UV      -0.011800
     38 H181        -4.2900    -3.5560     1.9860 h1         1 1UV       0.079700
     39 H202        -5.0160     0.0950     1.1810 h1         1 1UV       0.038200
     40 H201        -4.8790     0.3260     2.9450 h1         1 1UV       0.038200
     41 H211        -6.7390    -1.0090     3.3840 hc         1 1UV       0.038700
     42 H212        -7.1760    -0.6160     1.7020 hc         1 1UV       0.038700
     43 H221        -6.4240    -3.1910     2.7860 hx         1 1UV       0.099700
     44 H231        -6.9530    -2.2170     0.0810 hn         1 1UV       0.226800
     45 H232        -8.0210    -2.9160     1.1020 hn         1 1UV       0.226800
     46 H271        -0.5340    -0.4360     4.5130 ha         1 1UV       0.143000
     47 H233        -6.8090    -3.8020     0.4640 hn         1 1UV       0.226800
@<TRIPOS>BOND
     1     1     2 1   
     2     1     5 1   
     3     1    13 1   
     4     2     3 1   
     5     2     4 1   
     6     2    28 1   
     7     3     4 1   
     8     3    29 1   
     9     3    30 1   
    10     4    31 1   
    11     4    32 1   
    12     5     6 2   
    13     5    33 1   
    14     6     7 1   
    15     6    10 1   
    16     7     8 1   
    17     7     9 1   
    18    10    11 2   
    19    10    12 1   
    20    12    13 ar  
    21    12    27 ar  
    22    13    14 ar  
    23    14    15 1   
    24    14    24 ar  
    25    15    16 1   
    26    15    34 1   
    27    15    35 1   
    28    16    17 1   
    29    17    18 1   
    30    17    36 1   
    31    17    37 1   
    32    18    19 1   
    33    18    22 1   
    34    18    38 1   
    35    19    20 1   
    36    19    24 1   
    37    20    21 1   
    38    20    39 1   
    39    20    40 1   
    40    21    22 1   
    41    21    41 1   
    42    21    42 1   
    43    22    23 1   
    44    22    43 1   
    45    23    44 1   
    46    23    45 1   
    47    23    47 1   
    48    24    25 ar  
    49    25    26 1   
    50    25    27 ar  
    51    27    46 1   
@<TRIPOS>SUBSTRUCTURE
     1 1UV         1 TEMP              0 ****  ****    0 ROOT
