@<TRIPOS>MOLECULE
1UV
   47    51     1     0     0
SMALL
bcc


@<TRIPOS>ATOM
      1 N01         -0.2810     0.1470    -0.0970 na         1 1UV      -0.507800
      2 C02         -0.8270    -0.5320    -1.2370 cx         1 1UV       0.138500
      3 C03         -0.0310    -1.5680    -2.0120 cx         1 1UV      -0.135900
      4 C04         -1.2370    -1.9950    -1.2340 cx         1 1UV      -0.135900
      5 C05          1.1080     0.4060    -0.1590 cc         1 1UV       0.034000
      6 C06          1.9520     0.3610     0.8940 cd         1 1UV      -0.244400
      7 C07          3.4100     0.8030     0.6780 c          1 1UV       0.934800
      8 O08          3.9760     0.3350    -0.3450 o          1 1UV      -0.797800
      9 O09          3.8920     1.6200     1.4980 o          1 1UV      -0.797800
     10 C10          1.4710    -0.1020     2.1910 c          1 1UV       0.595900
     11 O11          2.1640    -0.4880     3.1390 o          1 1UV      -0.518100
     12 C12         -0.0220    -0.1310     2.3110 ca         1 1UV      -0.189600
     13 C13         -0.8630    -0.0110     1.1700 ca         1 1UV       0.209600
     14 C14         -2.2780     0.0510     1.3630 ca         1 1UV      -0.192300
     15 C15         -3.1020     0.4620     0.1850 c3         1 1UV       0.172700
     16 O16         -4.3400     1.0910     0.5070 os         1 1UV      -0.382600
     17 C17         -5.4160     0.2080     0.7180 c3         1 1UV       0.085400
     18 C18         -5.1060    -0.8440     1.7990 c3         1 1UV       0.181500
     19 N19         -4.2110    -0.4330     2.8590 nh         1 1UV      -0.658000
     20 C20         -4.9600     0.3780     3.8100 c3         1 1UV       0.195800
     21 C21         -6.4190    -0.1400     3.7540 c3         1 1UV      -0.106400
     22 C22         -6.4070    -1.1910     2.6230 c3         1 1UV       0.083500
     23 N23         -7.6540    -1.2230     1.8040 nz         1 1UV      -0.830600
     24 C24         -2.8320    -0.2150     2.6320 ca         1 1UV       0.140600
     25 C25         -1.9580    -0.3680     3.7510 ca         1 1UV       0.048900
     26 F26         -2.4420    -0.6000     5.0010 f          1 1UV      -0.150900
     27 C27         -0.5740    -0.2810     3.5760 ca         1 1UV      -0.062000
     28 H021        -1.4430     0.1710    -1.8440 h1         1 1UV       0.077700
     29 H032        -0.0790    -1.5320    -3.1150 hc         1 1UV       0.082200
     30 H031         0.9750    -1.8570    -1.6510 hc         1 1UV       0.082200
     31 H042        -1.0920    -2.5980    -0.3200 hc         1 1UV       0.082200
     32 H041        -2.1600    -2.2720    -1.7730 hc         1 1UV       0.082200
     33 H051         1.4710     0.6760    -1.1700 h4         1 1UV       0.181000
     34 H152        -3.2770    -0.4110    -0.5030 h1         1 1UV       0.074200
     35 H151        -2.5750     1.2940    -0.3730 h1         1 1UV       0.074200
     36 H171        -6.2450     0.9050     1.0270 h1         1 1UV       0.031200
     37 H172        -5.6880    -0.3110    -0.2410 h1         1 1UV       0.031200
     38 H181        -4.6830    -1.7670     1.3120 h1         1 1UV       0.097700
     39 H202        -4.9340     1.4740     3.5560 h1         1 1UV       0.083700
     40 H201        -4.5190     0.2340     4.8340 h1         1 1UV       0.083700
     41 H211        -6.7090    -0.6130     4.7230 hc         1 1UV       0.071700
     42 H212        -7.1160     0.7070     3.5450 hc         1 1UV       0.071700
     43 H221        -6.2890    -2.2280     3.0610 hx         1 1UV       0.123700
     44 H231        -7.8800    -0.2820     1.4640 hn         1 1UV       0.457133
     45 H232        -7.5160    -1.8410     0.9990 hn         1 1UV       0.457133
     46 H271         0.0990    -0.3690     4.4490 ha         1 1UV       0.185000
     47 H233        -8.4310    -1.5670     2.3730 hn         1 1UV       0.457133
@<TRIPOS>BOND
     1     1     2 1   
     2     1     5 1   
     3     1    13 1   
     4     2     3 1   
     5     2     4 1   
     6     2    28 1   
     7     3     4 1   
     8     3    29 1   
     9     3    30 1   
    10     4    31 1   
    11     4    32 1   
    12     5     6 2   
    13     5    33 1   
    14     6     7 1   
    15     6    10 1   
    16     7     8 1   
    17     7     9 1   
    18    10    11 2   
    19    10    12 1   
    20    12    13 ar  
    21    12    27 ar  
    22    13    14 ar  
    23    14    15 1   
    24    14    24 ar  
    25    15    16 1   
    26    15    34 1   
    27    15    35 1   
    28    16    17 1   
    29    17    18 1   
    30    17    36 1   
    31    17    37 1   
    32    18    19 1   
    33    18    22 1   
    34    18    38 1   
    35    19    20 1   
    36    19    24 1   
    37    20    21 1   
    38    20    39 1   
    39    20    40 1   
    40    21    22 1   
    41    21    41 1   
    42    21    42 1   
    43    22    23 1   
    44    22    43 1   
    45    23    44 1   
    46    23    45 1   
    47    23    47 1   
    48    24    25 ar  
    49    25    26 1   
    50    25    27 ar  
    51    27    46 1   
@<TRIPOS>SUBSTRUCTURE
     1 1UV         1 TEMP              0 ****  ****    0 ROOT
