@<TRIPOS>MOLECULE
molecule
   47    51     1     0     0
SMALL
bcc


@<TRIPOS>ATOM
      1 N01          0.0000     0.0000     0.0000 na         1 1UV      -0.494800
      2 C02         -0.6420     0.5870    -1.1790 cx         1 1UV       0.123500
      3 C03         -0.4530     2.0870    -1.4130 cx         1 1UV      -0.137400
      4 C04          0.2660     1.0770    -2.3080 cx         1 1UV      -0.137400
      5 C05          1.3440     0.0000     0.0000 cc         1 1UV       0.018000
      6 C06          2.0600     0.0000     1.1780 cd         1 1UV      -0.214400
      7 C07          3.5270     0.0140     1.1740 c          1 1UV       0.886800
      8 O08          4.2050     0.0130     2.3390 o          1 1UV      -0.809800
      9 O09          4.1320     0.0270     0.1200 o          1 1UV      -0.809800
     10 C10          1.3060    -0.0240     2.4450 c          1 1UV       0.558900
     11 O11          1.8540     0.1670     3.5170 o          1 1UV      -0.466100
     12 C12         -0.1330    -0.3120     2.3550 ca         1 1UV      -0.162600
     13 C13         -0.7360    -0.4130     1.0820 ca         1 1UV       0.208600
     14 C14         -1.9970    -1.0120     0.9920 ca         1 1UV      -0.192300
     15 C15         -2.3610    -1.5970    -0.3500 c3         1 1UV       0.201700
     16 O16         -3.1780    -2.7180    -0.2720 os         1 1UV      -0.391600
     17 C17         -4.5320    -2.6120     0.0820 c3         1 1UV       0.110400
     18 C18         -4.7070    -2.6410     1.5840 c3         1 1UV       0.173500
     19 N19         -4.0890    -1.4980     2.2200 nh         1 1UV      -0.644000
     20 C20         -5.0630    -0.3870     2.1500 c3         1 1UV       0.190800
     21 C21         -6.4340    -1.0710     2.3470 c3         1 1UV      -0.106400
     22 C22         -6.2080    -2.5450     1.9430 c3         1 1UV       0.082500
     23 N23         -7.0650    -2.8970     0.8060 nz         1 1UV      -0.808600
     24 C24         -2.7920    -1.1160     2.1060 ca         1 1UV       0.096600
     25 C25         -2.2140    -0.8150     3.3730 ca         1 1UV       0.075900
     26 F26         -2.9860    -0.8940     4.4770 f          1 1UV      -0.146900
     27 C27         -0.9170    -0.4530     3.5000 ca         1 1UV      -0.072000
     28 H021        -1.5980     0.1950    -1.5030 h1         1 1UV       0.077700
     29 H032        -1.2930     2.5990    -1.8670 hc         1 1UV       0.089950
     30 H031         0.1720     2.5980    -0.6900 hc         1 1UV       0.089950
     31 H042        -0.1340     0.9710    -3.3090 hc         1 1UV       0.089950
     32 H041         1.3300     0.9700    -2.1330 hc         1 1UV       0.089950
     33 H051         1.8750    -0.0110    -0.9440 h4         1 1UV       0.188000
     34 H152        -1.4480    -1.8720    -0.8640 h1         1 1UV       0.067200
     35 H151        -2.8730    -0.8370    -0.9280 h1         1 1UV       0.067200
     36 H171        -4.9270    -1.6800    -0.3030 h1         1 1UV       0.019200
     37 H172        -5.0770    -3.4410    -0.3530 h1         1 1UV       0.019200
     38 H181        -4.2900    -3.5560     1.9860 h1         1 1UV       0.114700
     39 H202        -5.0160     0.0950     1.1810 h1         1 1UV       0.069700
     40 H201        -4.8790     0.3260     2.9450 h1         1 1UV       0.069700
     41 H211        -6.7390    -1.0090     3.3840 hc         1 1UV       0.073700
     42 H212        -7.1760    -0.6160     1.7020 hc         1 1UV       0.073700
     43 H221        -6.4240    -3.1910     2.7860 hx         1 1UV       0.125700
     44 H231        -6.9530    -2.2170     0.0810 hn         1 1UV       0.453467
     45 H232        -8.0210    -2.9160     1.1020 hn         1 1UV       0.453467
     46 H271        -0.5340    -0.4360     4.5130 ha         1 1UV       0.178000
     47 H233        -6.8090    -3.8020     0.4640 hn         1 1UV       0.453467
@<TRIPOS>BOND
     1    16    17 1
     2    16    15 1
     3    17    18 1
     4     2     3 1
     5     2     1 1
     6     2     4 1
     7    15    14 1
     8     3     4 1
     9     9     7 1
    10    20    19 1
    11    20    21 1
    12     1     5 1
    13     1    13 1
    14     5     6 2
    15    14    13 ar
    16    14    24 ar
    17    13    12 ar
    18    19    24 1
    19    19    18 1
    20    24    25 ar
    21     6     7 1
    22     6    10 1
    23    18    22 1
    24     7     8 1
    25    21    22 1
    26    12    10 1
    27    12    27 ar
    28    10    11 2
    29    23    22 1
    30    25    27 ar
    31    25    26 1
    32     2    28 1
    33     3    29 1
    34     3    30 1
    35     4    31 1
    36     4    32 1
    37     5    33 1
    38    15    34 1
    39    15    35 1
    40    17    36 1
    41    17    37 1
    42    18    38 1
    43    20    39 1
    44    20    40 1
    45    21    41 1
    46    21    42 1
    47    22    43 1
    48    23    44 1
    49    23    45 1
    50    27    46 1
    51    47    23 1
@<TRIPOS>SUBSTRUCTURE
     1 1UV         1 TEMP              0 ****  ****    0 ROOT
