@<TRIPOS>MOLECULE
1UW
   36    38     1     0     0
SMALL
bcc


@<TRIPOS>ATOM
      1 CAV          0.0990    -0.0520     0.3210 c3         1 1UW      -0.127100
      2 CAS          1.3220     0.6150    -0.2580 c3         1 1UW       0.140400
      3 OAP          2.5240     0.0400     0.2780 os         1 1UW      -0.439900
      4 CAG          2.9360     0.4690     1.5110 c          1 1UW       0.644700
      5 OAK          2.2660     1.3290     2.0900 o          1 1UW      -0.540000
      6 CAI          4.1730    -0.1720     1.9870 ca         1 1UW      -0.115600
      7 CAO          4.6870     0.2120     3.2330 ca         1 1UW      -0.078500
      8 CAM          5.8550    -0.3750     3.7120 ca         1 1UW      -0.113000
      9 CAN          4.8290    -1.1470     1.2280 ca         1 1UW      -0.078500
     10 CAL          5.9970    -1.7340     1.7080 ca         1 1UW      -0.113000
     11 CAH          6.5190    -1.3470     2.9510 ca         1 1UW      -0.042800
     12 CAA          7.7600    -1.9540     3.4410 cc         1 1UW       0.185900
     13 OAC          7.7960    -1.9770     4.8280 os         1 1UW      -0.224200
     14 CAF          8.9270    -2.5220     5.4180 ca         1 1UW       0.142100
     15 CAR          8.9230    -2.5260     6.8250 ca         1 1UW      -0.158000
     16 CAU         10.0210    -3.0560     7.4910 ca         1 1UW      -0.077000
     17 CAT         11.1080    -3.5760     6.7770 ca         1 1UW      -0.164000
     18 CAQ         11.1010    -3.5690     5.3880 ca         1 1UW      -0.046000
     19 CAE         10.0060    -3.0400     4.6870 ca         1 1UW      -0.214600
     20 CAD          9.9720    -3.0190     3.2170 c          1 1UW       0.588900
     21 OAJ         10.8870    -3.4620     2.5100 o          1 1UW      -0.541100
     22 CAB          8.7570    -2.4260     2.6580 cd         1 1UW      -0.308200
     23 H1          -0.8150     0.3440    -0.1820 hc         1 1UW       0.050700
     24 H2           0.1450    -1.1570     0.1710 hc         1 1UW       0.050700
     25 H3           0.0300     0.1570     1.4160 hc         1 1UW       0.050700
     26 H4           1.4240     0.4110    -1.3580 h1         1 1UW       0.064200
     27 H5           1.3100     1.7190    -0.0660 h1         1 1UW       0.064200
     28 H6           4.1600     0.9790     3.8240 ha         1 1UW       0.162500
     29 H7           6.2600    -0.0790     4.6930 ha         1 1UW       0.152500
     30 H8           4.4170    -1.4480     0.2510 ha         1 1UW       0.162500
     31 H9           6.5060    -2.5070     1.1110 ha         1 1UW       0.152500
     32 H10          8.0620    -2.1150     7.3700 ha         1 1UW       0.155000
     33 H11         10.0350    -3.0670     8.5920 ha         1 1UW       0.141000
     34 H12         11.9690    -3.9920     7.3210 ha         1 1UW       0.143000
     35 H13         11.9480    -3.9750     4.8110 ha         1 1UW       0.162000
     36 H14          8.6930    -2.3730     1.5610 ha         1 1UW       0.169000
@<TRIPOS>BOND
     1     1     2 1   
     2     1    23 1   
     3     1    24 1   
     4     1    25 1   
     5     2     3 1   
     6     2    26 1   
     7     2    27 1   
     8     3     4 1   
     9     4     5 2   
    10     4     6 1   
    11     6     7 ar  
    12     6     9 ar  
    13     7     8 ar  
    14     7    28 1   
    15     8    11 ar  
    16     8    29 1   
    17     9    10 ar  
    18     9    30 1   
    19    10    11 ar  
    20    10    31 1   
    21    11    12 1   
    22    12    13 1   
    23    12    22 2   
    24    13    14 1   
    25    14    15 ar  
    26    14    19 ar  
    27    15    16 ar  
    28    15    32 1   
    29    16    17 ar  
    30    16    33 1   
    31    17    18 ar  
    32    17    34 1   
    33    18    19 ar  
    34    18    35 1   
    35    19    20 1   
    36    20    21 2   
    37    20    22 1   
    38    22    36 1   
@<TRIPOS>SUBSTRUCTURE
     1 1UW         1 TEMP              0 ****  ****    0 ROOT
