@<TRIPOS>MOLECULE
1UW
   36    38     1     0     0
SMALL
bcc


@<TRIPOS>ATOM
      1 CAV         0.0130   -0.3170    0.2820 c3        1 1UW     -0.101100
      2 CAS         1.4720    0.0240    0.1070 c3        1 1UW      0.140400
      3 OAP         2.0600   -0.0430    1.4210 os        1 1UW     -0.440900
      4 CAG         3.3970    0.2340    1.5000 c         1 1UW      0.644700
      5 OAK         3.9950    0.5170    0.4570 o         1 1UW     -0.540000
      6 CAI         3.9530    0.1520    2.8600 ca        1 1UW     -0.115600
      7 CAO         5.3170    0.4150    3.0410 ca        1 1UW     -0.078500
      8 CAM         5.8770    0.3460    4.3140 ca        1 1UW     -0.113000
      9 CAN         3.1500   -0.1770    3.9580 ca        1 1UW     -0.078500
     10 CAL         3.7100   -0.2460    5.2320 ca        1 1UW     -0.113000
     11 CAH         5.0770    0.0090    5.4150 ca        1 1UW     -0.042800
     12 CAA         5.6760   -0.0810    6.7500 cc        1 1UW      0.184900
     13 OAC         4.7490    0.2140    7.7400 os        1 1UW     -0.224200
     14 CAF         5.1910    0.1580    9.0530 ca        1 1UW      0.142100
     15 CAR         4.2220    0.4670   10.0250 ca        1 1UW     -0.159000
     16 CAU         4.5890    0.4320   11.3640 ca        1 1UW     -0.077000
     17 CAT         5.8960    0.0970   11.7390 ca        1 1UW     -0.164000
     18 CAQ         6.8460   -0.2050   10.7720 ca        1 1UW     -0.046000
     19 CAE         6.5060   -0.1790    9.4110 ca        1 1UW     -0.214600
     20 CAD         7.4910   -0.4940    8.3660 c         1 1UW      0.588900
     21 OAJ         8.6680   -0.7960    8.6100 o         1 1UW     -0.540100
     22 CAB         6.9600   -0.4190    7.0050 cd        1 1UW     -0.307200
     23 H1         -0.1030   -1.3410    0.7110 hc        1 1UW      0.049033
     24 H2         -0.4810    0.4100    0.9700 hc        1 1UW      0.049033
     25 H3         -0.4900   -0.2780   -0.7140 hc        1 1UW      0.049033
     26 H4          1.9990   -0.7080   -0.5590 h1        1 1UW      0.053700
     27 H5          1.6180    1.0600   -0.2970 h1        1 1UW      0.053700
     28 H6          5.9390    0.6770    2.1680 ha        1 1UW      0.162500
     29 H7          6.9470    0.5620    4.4530 ha        1 1UW      0.152500
     30 H8          2.0770   -0.3800    3.8100 ha        1 1UW      0.162500
     31 H9          3.0820   -0.5000    6.1000 ha        1 1UW      0.152500
     32 H10         3.2020    0.7290    9.7130 ha        1 1UW      0.154000
     33 H11         3.8430    0.6710   12.1370 ha        1 1UW      0.141000
     34 H12         6.1690    0.0750   12.8040 ha        1 1UW      0.143000
     35 H13         7.8800   -0.4700   11.0500 ha        1 1UW      0.162000
     36 H14         7.6580   -0.6620    6.1890 ha        1 1UW      0.170000
@<TRIPOS>BOND
     1    1    2 1   
     2    1   23 1   
     3    1   24 1   
     4    1   25 1   
     5    2    3 1   
     6    2   26 1   
     7    2   27 1   
     8    3    4 1   
     9    4    5 2   
    10    4    6 1   
    11    6    7 ar  
    12    6    9 ar  
    13    7    8 ar  
    14    7   28 1   
    15    8   11 ar  
    16    8   29 1   
    17    9   10 ar  
    18    9   30 1   
    19   10   11 ar  
    20   10   31 1   
    21   11   12 1   
    22   12   13 1   
    23   12   22 2   
    24   13   14 1   
    25   14   15 ar  
    26   14   19 ar  
    27   15   16 ar  
    28   15   32 1   
    29   16   17 ar  
    30   16   33 1   
    31   17   18 ar  
    32   17   34 1   
    33   18   19 ar  
    34   18   35 1   
    35   19   20 1   
    36   20   21 2   
    37   20   22 1   
    38   22   36 1   
@<TRIPOS>SUBSTRUCTURE
     1 1UW         1 TEMP              0 ****  ****    0 ROOT
