@<TRIPOS>MOLECULE
molecule
   36    38     1     0     0
SMALL
bcc


@<TRIPOS>ATOM
      1 CAV          0.0000     0.0000     0.0000 c3         1 1UW      -0.096100
      2 CAS          1.5300     0.0000     0.0000 c3         1 1UW       0.148400
      3 OAP          2.0150     0.0000     1.3680 os         1 1UW      -0.430900
      4 CAG          3.3500     0.0000     1.5450 c          1 1UW       0.647700
      5 OAK          4.0890    -0.0010     0.5820 o          1 1UW      -0.545000
      6 CAI          3.9150    -0.0000     2.9110 ca         1 1UW      -0.114600
      7 CAO          5.3000    -0.0000     3.0930 ca         1 1UW      -0.077500
      8 CAM          5.8270    -0.0010     4.3660 ca         1 1UW      -0.113000
      9 CAN          3.0640     0.0060     4.0190 ca         1 1UW      -0.077500
     10 CAL          3.5900     0.0070     5.2910 ca         1 1UW      -0.113000
     11 CAH          4.9750     0.0000     5.4740 ca         1 1UW      -0.040800
     12 CAA          5.5400     0.0010     6.8390 cc         1 1UW       0.201900
     13 OAC          4.7000     0.0080     7.8840 os         1 1UW      -0.215200
     14 CAF          5.1350     0.0080     9.1620 ca         1 1UW       0.157100
     15 CAR          4.2370     0.0160    10.2220 ca         1 1UW      -0.155000
     16 CAU          4.7030     0.0170    11.5180 ca         1 1UW      -0.075000
     17 CAT          6.0650     0.0100    11.7810 ca         1 1UW      -0.164000
     18 CAQ          6.9730     0.0010    10.7450 ca         1 1UW      -0.039000
     19 CAE          6.5130     0.0000     9.4290 ca         1 1UW      -0.228600
     20 CAD          7.4510    -0.0070     8.2880 c          1 1UW       0.583900
     21 OAJ          8.6590    -0.0130     8.4590 o          1 1UW      -0.545100
     22 CAB          6.8920    -0.0110     6.9860 cd         1 1UW      -0.333200
     23 H1          -0.3610     0.8850     0.5100 hc         1 1UW       0.048367
     24 H2          -0.3610    -0.0010    -1.0210 hc         1 1UW       0.048367
     25 H3          -0.3610    -0.8840     0.5110 hc         1 1UW       0.048367
     26 H4           1.8910     0.8840    -0.5110 h1         1 1UW       0.050700
     27 H5           1.8910    -0.8840    -0.5110 h1         1 1UW       0.050700
     28 H6           5.9590    -0.0010     2.2340 ha         1 1UW       0.159500
     29 H7           6.9010    -0.0030     4.5070 ha         1 1UW       0.151500
     30 H8           1.9900     0.0120     3.8770 ha         1 1UW       0.159500
     31 H9           2.9300     0.0100     6.1500 ha         1 1UW       0.151500
     32 H10          3.1710     0.0210    10.0290 ha         1 1UW       0.147000
     33 H11          3.9990     0.0240    12.3410 ha         1 1UW       0.140000
     34 H12          6.4170     0.0110    12.8060 ha         1 1UW       0.140000
     35 H13          8.0360    -0.0040    10.9510 ha         1 1UW       0.160000
     36 H14          7.5300    -0.1580     6.1230 ha         1 1UW       0.170000
@<TRIPOS>BOND
     1    17    18 ar
     2    17    16 ar
     3    18    19 ar
     4    16    15 ar
     5    21    20 2
     6    19    20 1
     7    19    14 ar
     8    20    22 1
     9    15    14 ar
    10    14    13 1
    11    22    12 2
    12    13    12 1
    13    12    11 1
    14    11    10 ar
    15    11     8 ar
    16    10     9 ar
    17     8     7 ar
    18     9     6 ar
    19     7     6 ar
    20     6     4 1
    21     4     5 2
    22     4     3 1
    23     3     2 1
    24     2     1 1
    25     1    23 1
    26     1    24 1
    27     1    25 1
    28     2    26 1
    29     2    27 1
    30     7    28 1
    31     8    29 1
    32     9    30 1
    33    10    31 1
    34    15    32 1
    35    16    33 1
    36    17    34 1
    37    18    35 1
    38    22    36 1
@<TRIPOS>SUBSTRUCTURE
     1 1UW         1 TEMP              0 ****  ****    0 ROOT
