@<TRIPOS>MOLECULE
1UX
   61    63     1     0     0
SMALL
bcc


@<TRIPOS>ATOM
      1 CAC          0.0000     0.0000     0.0000 c3         1 1UX      -0.031600
      2 CBF          1.5300     0.0000     0.0000 c3         1 1UX       0.160800
      3 CAD          2.0400     0.0000     1.4420 c3         1 1UX      -0.031600
      4 OAG          2.0060    -1.1660    -0.6740 oh         1 1UX      -0.576800
      5 CAN          2.0390     1.2500    -0.7210 c3         1 1UX       0.201400
      6 OAT          1.4700     1.3100    -2.0300 os         1 1UX      -0.278900
      7 CBB          1.8220     2.3690    -2.8080 ca         1 1UX       0.115100
      8 CAK          2.6960     3.3240    -2.3220 ca         1 1UX      -0.142000
      9 CBA          1.3090     2.4860    -4.0980 ca         1 1UX       0.132100
     10 OAS          0.4540     1.5440    -4.5750 os         1 1UX      -0.289900
     11 CAB         -0.0360     1.7270    -5.9070 c3         1 1UX       0.240700
     12 CAI          1.6660     3.5640    -4.8950 ca         1 1UX      -0.183000
     13 CAH          2.5340     4.5230    -4.4140 ca         1 1UX      -0.084000
     14 CAY          3.0560     4.4080    -3.1240 ca         1 1UX      -0.130500
     15 CBE          3.9850     5.4350    -2.6070 cc         1 1UX       0.536900
     16 NAR          4.5330     5.4330    -1.4260 nd         1 1UX      -0.549000
     17 SAV          4.5340     6.8550    -3.4930 ss         1 1UX      -0.330300
     18 CBD          5.5010     7.3430    -2.1030 cc         1 1UX      -0.077700
     19 CAM          6.3670     8.5730    -2.0170 c3         1 1UX       0.064900
     20 CAL          7.7790     8.2360    -2.5010 c3         1 1UX      -0.032400
     21 CAA          8.6600     9.4840    -2.4140 c3         1 1UX       0.006900
     22 CBC          5.3360     6.4320    -1.1380 cd         1 1UX       0.331600
     23 CAO          6.0270     6.5450     0.1960 c3         1 1UX       0.059400
     24 SAU          4.9780     7.4760     1.3400 ss         1 1UX      -0.383400
     25 C2           5.9990     7.4570     2.7760 ca         1 1UX       0.824300
     26 N3           5.5740     8.0550     3.8790 nb         1 1UX      -0.733000
     27 N1           7.1690     6.8380     2.7270 nb         1 1UX      -0.733000
     28 C6           7.9670     6.8030     3.7910 ca         1 1UX       0.578700
     29 NAE          9.1910     6.1540     3.7310 nv         1 1UX      -0.528500
     30 C5           7.5570     7.4260     4.9670 ca         1 1UX      -0.508600
     31 C4           6.3180     8.0610     4.9830 ca         1 1UX       0.578700
     32 NAF          5.8680     8.6950     6.1300 nv         1 1UX      -0.528500
     33 H1          -0.3610    -0.1370    -1.0120 hc         1 1UX       0.014200
     34 H2          -0.3610    -0.8080     0.6250 hc         1 1UX       0.014200
     35 H3          -0.3610     0.9450     0.3870 hc         1 1UX       0.014200
     36 H4           3.1230     0.0250     1.4420 hc         1 1UX       0.014200
     37 H5           1.6990    -0.8970     1.9460 hc         1 1UX       0.014200
     38 H6           1.6590     0.8720     1.9600 hc         1 1UX       0.014200
     39 H7           1.7200    -1.9360    -0.2110 ho         1 1UX       0.391000
     40 H8           1.7520     2.1320    -0.1610 h1         1 1UX       0.013700
     41 H9           3.1190     1.2080    -0.7980 h1         1 1UX       0.013700
     42 H10          3.0990     3.2320    -1.3210 ha         1 1UX       0.142000
     43 H11          0.7980     1.7430    -6.5990 h1         1 1UX      -0.002633
     44 H12         -0.7010     0.9110    -6.1620 h1         1 1UX      -0.002633
     45 H13         -0.5740     2.6650    -5.9680 h1         1 1UX      -0.002633
     46 H14          1.2630     3.6530    -5.8960 ha         1 1UX       0.124000
     47 H15          2.8120     5.3630    -5.0380 ha         1 1UX       0.114000
     48 H16          6.4090     8.9140    -0.9890 hc         1 1UX       0.033200
     49 H17          5.9490     9.3540    -2.6400 hc         1 1UX       0.033200
     50 H18          8.1980     7.4550    -1.8770 hc         1 1UX       0.018700
     51 H19          7.7370     7.8940    -3.5280 hc         1 1UX       0.018700
     52 H20          9.6630     9.2420    -2.7450 hc         1 1UX       0.002033
     53 H21          8.2490    10.2610    -3.0470 hc         1 1UX       0.002033
     54 H22          8.6930     9.8330    -1.3890 hc         1 1UX       0.002033
     55 H23          6.9710     7.0610     0.0720 h1         1 1UX       0.059700
     56 H24          6.2060     5.5540     0.5950 h1         1 1UX       0.059700
     57 H25          9.7310     6.1820     2.8890 hn         1 1UX       0.272300
     58 H26          9.5380     5.6650     4.5330 hn         1 1UX       0.272300
     59 H27          8.1860     7.4140     5.8490 ha         1 1UX       0.129000
     60 H28          4.9760     9.1490     6.1330 hn         1 1UX       0.272300
     61 H29          6.4440     8.7180     6.9470 hn         1 1UX       0.272300
@<TRIPOS>BOND
     1     1     2 1   
     2     1    33 1   
     3     1    34 1   
     4     1    35 1   
     5     2     3 1   
     6     2     4 1   
     7     2     5 1   
     8     3    36 1   
     9     3    37 1   
    10     3    38 1   
    11     4    39 1   
    12     5     6 1   
    13     5    40 1   
    14     5    41 1   
    15     6     7 1   
    16     7     8 ar  
    17     7     9 ar  
    18     8    14 ar  
    19     8    42 1   
    20     9    10 1   
    21     9    12 ar  
    22    10    11 1   
    23    11    43 1   
    24    11    44 1   
    25    11    45 1   
    26    12    13 ar  
    27    12    46 1   
    28    13    14 ar  
    29    13    47 1   
    30    14    15 1   
    31    15    16 2   
    32    15    17 1   
    33    16    22 1   
    34    17    18 1   
    35    18    19 1   
    36    18    22 2   
    37    19    20 1   
    38    19    48 1   
    39    19    49 1   
    40    20    21 1   
    41    20    50 1   
    42    20    51 1   
    43    21    52 1   
    44    21    53 1   
    45    21    54 1   
    46    22    23 1   
    47    23    24 1   
    48    23    55 1   
    49    23    56 1   
    50    24    25 1   
    51    25    26 ar  
    52    25    27 ar  
    53    26    31 ar  
    54    27    28 ar  
    55    28    29 1   
    56    28    30 ar  
    57    29    57 1   
    58    29    58 1   
    59    30    31 ar  
    60    30    59 1   
    61    31    32 1   
    62    32    60 1   
    63    32    61 1   
@<TRIPOS>SUBSTRUCTURE
     1 1UX         1 TEMP              0 ****  ****    0 ROOT
