@<TRIPOS>MOLECULE
1UX
   61    63     1     0     0
SMALL
bcc


@<TRIPOS>ATOM
      1 CAC         -0.0100     0.1590    -1.0570 c3         1 1UX      -0.122100
      2 CBF          1.3740    -0.1240    -0.4800 c3         1 1UX       0.151800
      3 CAD          1.3850     0.1140     1.0220 c3         1 1UX      -0.122100
      4 OAG          2.3360     0.7000    -1.1370 oh         1 1UX      -0.593800
      5 CAN          1.7690    -1.5700    -0.8300 c3         1 1UX       0.131400
      6 OAT          2.8060    -1.9580     0.0800 os         1 1UX      -0.302900
      7 CBB          3.4400    -3.1460    -0.2180 ca         1 1UX       0.104100
      8 CAK          2.9970    -4.0690    -1.1650 ca         1 1UX      -0.137000
      9 CBA          4.6090    -3.4170     0.5450 ca         1 1UX       0.115100
     10 OAS          4.9560    -2.4490     1.4620 os         1 1UX      -0.300900
     11 CAB          6.1510    -2.6860     2.1970 c3         1 1UX       0.109700
     12 CAI          5.3060    -4.6080     0.3380 ca         1 1UX      -0.182000
     13 CAH          4.8580    -5.5230    -0.6140 ca         1 1UX      -0.119000
     14 CAY          3.7090    -5.2620    -1.3670 ca         1 1UX      -0.133500
     15 CBE          3.2630    -6.2280    -2.3600 cc         1 1UX       0.461900
     16 NAR          2.0240    -6.3160    -2.8500 nd         1 1UX      -0.617000
     17 SAV          4.3660    -7.3840    -3.0140 ss         1 1UX      -0.095300
     18 CBD          3.1590    -8.0380    -3.9830 cc         1 1UX      -0.163700
     19 CAM          3.3850    -9.1540    -4.9160 c3         1 1UX      -0.015100
     20 CAL          3.4170   -10.5120    -4.2370 c3         1 1UX      -0.075400
     21 CAA          2.0510   -10.9720    -3.7990 c3         1 1UX      -0.097100
     22 CBC          1.9570    -7.3500    -3.7820 cd         1 1UX       0.336600
     23 CAO          0.6820    -7.6730    -4.4620 c3         1 1UX      -0.055600
     24 SAU          0.7300    -6.8000    -6.0100 ss         1 1UX      -0.202400
     25 C2          -0.7610    -7.2000    -6.7930 ca         1 1UX       0.792300
     26 N3          -0.9350    -6.5940    -8.0010 nb         1 1UX      -0.796500
     27 N1          -1.6140    -8.0590    -6.1690 nb         1 1UX      -0.796500
     28 C6          -2.7950    -8.3270    -6.8220 ca         1 1UX       0.705200
     29 NAE         -3.7560    -9.1140    -6.1910 nv         1 1UX      -0.938000
     30 C5          -3.0770    -7.7640    -8.0980 ca         1 1UX      -0.500600
     31 C4          -2.1010    -6.8970    -8.6670 ca         1 1UX       0.705200
     32 NAF         -2.2970    -6.3930    -9.9510 nv         1 1UX      -0.938000
     33 H1          -0.7750    -0.4800    -0.5570 hc         1 1UX       0.047867
     34 H2          -0.0180    -0.0480    -2.1540 hc         1 1UX       0.047867
     35 H3          -0.2740     1.2310    -0.8960 hc         1 1UX       0.047867
     36 H4           0.7280    -0.6310     1.5280 hc         1 1UX       0.047867
     37 H5           1.0170     1.1420     1.2530 hc         1 1UX       0.047867
     38 H6           2.4250     0.0000     1.4140 hc         1 1UX       0.047867
     39 H7           2.2270     1.5920    -0.7870 ho         1 1UX       0.401000
     40 H8           2.1430    -1.6140    -1.8860 h1         1 1UX       0.055700
     41 H9           0.8890    -2.2500    -0.6910 h1         1 1UX       0.055700
     42 H10          2.0890    -3.8710    -1.7560 ha         1 1UX       0.164000
     43 H11          6.2410    -1.7760     2.8420 h1         1 1UX       0.044700
     44 H12          6.0520    -3.6050     2.8250 h1         1 1UX       0.044700
     45 H13          7.0290    -2.7720     1.5120 h1         1 1UX       0.044700
     46 H14          6.2110    -4.8350     0.9190 ha         1 1UX       0.142000
     47 H15          5.4170    -6.4610    -0.7650 ha         1 1UX       0.135000
     48 H16          2.5830    -9.1500    -5.7060 hc         1 1UX       0.062200
     49 H17          4.3640    -8.9950    -5.4470 hc         1 1UX       0.062200
     50 H18          4.1040   -10.4750    -3.3520 hc         1 1UX       0.042200
     51 H19          3.8440   -11.2570    -4.9600 hc         1 1UX       0.042200
     52 H20          1.3670   -11.0740    -4.6770 hc         1 1UX       0.037033
     53 H21          1.5990   -10.2400    -3.0860 hc         1 1UX       0.037033
     54 H22          2.1220   -11.9640    -3.2910 hc         1 1UX       0.037033
     55 H23          0.6070    -8.7780    -4.6260 h1         1 1UX       0.094700
     56 H24         -0.2030    -7.3580    -3.8550 h1         1 1UX       0.094700
     57 H25         -4.4000    -9.5650    -6.7980 hn         1 1UX       0.415800
     58 H26         -3.4690    -9.6410    -5.3990 hn         1 1UX       0.415800
     59 H27         -4.0100    -7.9880    -8.6230 ha         1 1UX       0.146000
     60 H28         -3.2450    -6.3160   -10.2340 hn         1 1UX       0.415800
     61 H29         -1.6970    -5.6570   -10.2480 hn         1 1UX       0.415800
@<TRIPOS>BOND
     1     1     2 1   
     2     1    33 1   
     3     1    34 1   
     4     1    35 1   
     5     2     3 1   
     6     2     4 1   
     7     2     5 1   
     8     3    36 1   
     9     3    37 1   
    10     3    38 1   
    11     4    39 1   
    12     5     6 1   
    13     5    40 1   
    14     5    41 1   
    15     6     7 1   
    16     7     8 ar  
    17     7     9 ar  
    18     8    14 ar  
    19     8    42 1   
    20     9    10 1   
    21     9    12 ar  
    22    10    11 1   
    23    11    43 1   
    24    11    44 1   
    25    11    45 1   
    26    12    13 ar  
    27    12    46 1   
    28    13    14 ar  
    29    13    47 1   
    30    14    15 1   
    31    15    16 2   
    32    15    17 1   
    33    16    22 1   
    34    17    18 1   
    35    18    19 1   
    36    18    22 2   
    37    19    20 1   
    38    19    48 1   
    39    19    49 1   
    40    20    21 1   
    41    20    50 1   
    42    20    51 1   
    43    21    52 1   
    44    21    53 1   
    45    21    54 1   
    46    22    23 1   
    47    23    24 1   
    48    23    55 1   
    49    23    56 1   
    50    24    25 1   
    51    25    26 ar  
    52    25    27 ar  
    53    26    31 ar  
    54    27    28 ar  
    55    28    29 1   
    56    28    30 ar  
    57    29    57 1   
    58    29    58 1   
    59    30    31 ar  
    60    30    59 1   
    61    31    32 1   
    62    32    60 1   
    63    32    61 1   
@<TRIPOS>SUBSTRUCTURE
     1 1UX         1 TEMP              0 ****  ****    0 ROOT
