@<TRIPOS>MOLECULE
molecule
   61    63     1     0     0
SMALL
bcc


@<TRIPOS>ATOM
      1 CAC          0.0000     0.0000     0.0000 c3         1 1UX      -0.120600
      2 CBF          1.5300     0.0000     0.0000 c3         1 1UX       0.153800
      3 CAD          2.0400     0.0000     1.4420 c3         1 1UX      -0.120600
      4 OAG          2.0060    -1.1660    -0.6740 oh         1 1UX      -0.591800
      5 CAN          2.0390     1.2500    -0.7210 c3         1 1UX       0.151400
      6 OAT          1.4700     1.3100    -2.0300 os         1 1UX      -0.302900
      7 CBB          1.8220     2.3690    -2.8080 ca         1 1UX       0.114100
      8 CAK          2.6960     3.3240    -2.3220 ca         1 1UX      -0.149000
      9 CBA          1.3090     2.4860    -4.0980 ca         1 1UX       0.129100
     10 OAS          0.4540     1.5440    -4.5750 os         1 1UX      -0.307900
     11 CAB         -0.0360     1.7270    -5.9070 c3         1 1UX       0.126700
     12 CAI          1.6660     3.5640    -4.8950 ca         1 1UX      -0.194000
     13 CAH          2.5340     4.5230    -4.4140 ca         1 1UX      -0.112000
     14 CAY          3.0560     4.4080    -3.1240 ca         1 1UX      -0.129500
     15 CBE          3.9850     5.4350    -2.6070 cc         1 1UX       0.543900
     16 NAR          4.5330     5.4330    -1.4260 nd         1 1UX      -0.674000
     17 SAV          4.5340     6.8550    -3.4930 ss         1 1UX      -0.238300
     18 CBD          5.5010     7.3430    -2.1030 cc         1 1UX      -0.113700
     19 CAM          6.3670     8.5730    -2.0170 c3         1 1UX      -0.004100
     20 CAL          7.7790     8.2360    -2.5010 c3         1 1UX      -0.082400
     21 CAA          8.6600     9.4840    -2.4140 c3         1 1UX      -0.093100
     22 CBC          5.3360     6.4320    -1.1380 cd         1 1UX       0.371600
     23 CAO          6.0270     6.5450     0.1960 c3         1 1UX      -0.029600
     24 SAU          4.9780     7.4760     1.3400 ss         1 1UX      -0.238400
     25 C2           5.9990     7.4570     2.7760 ca         1 1UX       0.856300
     26 N3           5.5740     8.0550     3.8790 nb         1 1UX      -0.838500
     27 N1           7.1690     6.8380     2.7270 nb         1 1UX      -0.838500
     28 C6           7.9670     6.8030     3.7910 ca         1 1UX       0.763200
     29 NAE          9.1910     6.1540     3.7310 nv         1 1UX      -1.014000
     30 C5           7.5570     7.4260     4.9670 ca         1 1UX      -0.516600
     31 C4           6.3180     8.0610     4.9830 ca         1 1UX       0.763200
     32 NAF          5.8680     8.6950     6.1300 nv         1 1UX      -1.014000
     33 H1          -0.3610    -0.1370    -1.0120 hc         1 1UX       0.046200
     34 H2          -0.3610    -0.8080     0.6250 hc         1 1UX       0.046200
     35 H3          -0.3610     0.9450     0.3870 hc         1 1UX       0.046200
     36 H4           3.1230     0.0250     1.4420 hc         1 1UX       0.046200
     37 H5           1.6990    -0.8970     1.9460 hc         1 1UX       0.046200
     38 H6           1.6590     0.8720     1.9600 hc         1 1UX       0.046200
     39 H7           1.7200    -1.9360    -0.2110 ho         1 1UX       0.402000
     40 H8           1.7520     2.1320    -0.1610 h1         1 1UX       0.047700
     41 H9           3.1190     1.2080    -0.7980 h1         1 1UX       0.047700
     42 H10          3.0990     3.2320    -1.3210 ha         1 1UX       0.165000
     43 H11          0.7980     1.7430    -6.5990 h1         1 1UX       0.041367
     44 H12         -0.7010     0.9110    -6.1620 h1         1 1UX       0.041367
     45 H13         -0.5740     2.6650    -5.9680 h1         1 1UX       0.041367
     46 H14          1.2630     3.6530    -5.8960 ha         1 1UX       0.143000
     47 H15          2.8120     5.3630    -5.0380 ha         1 1UX       0.135000
     48 H16          6.4090     8.9140    -0.9890 hc         1 1UX       0.061700
     49 H17          5.9490     9.3540    -2.6400 hc         1 1UX       0.061700
     50 H18          8.1980     7.4550    -1.8770 hc         1 1UX       0.046200
     51 H19          7.7370     7.8940    -3.5280 hc         1 1UX       0.046200
     52 H20          9.6630     9.2420    -2.7450 hc         1 1UX       0.035033
     53 H21          8.2490    10.2610    -3.0470 hc         1 1UX       0.035033
     54 H22          8.6930     9.8330    -1.3890 hc         1 1UX       0.035033
     55 H23          6.9710     7.0610     0.0720 h1         1 1UX       0.090700
     56 H24          6.2060     5.5540     0.5950 h1         1 1UX       0.090700
     57 H25          9.7310     6.1820     2.8890 hn         1 1UX       0.441800
     58 H26          9.5380     5.6650     4.5330 hn         1 1UX       0.441800
     59 H27          8.1860     7.4140     5.8490 ha         1 1UX       0.138000
     60 H28          4.9760     9.1490     6.1330 hn         1 1UX       0.441800
     61 H29          6.4440     8.7180     6.9470 hn         1 1UX       0.441800
@<TRIPOS>BOND
     1    19    20 1
     2    19    18 1
     3    17    18 1
     4    17    15 1
     5    20    21 1
     6    13    12 ar
     7    13    14 ar
     8    18    22 2
     9    12     9 ar
    10    30    31 ar
    11    30    28 ar
    12    32    31 1
    13    29    28 1
    14    31    26 ar
    15    28    27 ar
    16    11    10 1
    17    15    14 1
    18    15    16 2
    19    14     8 ar
    20    26    25 ar
    21    27    25 ar
    22    25    24 1
    23     9    10 1
    24     9     7 ar
    25    22    16 1
    26    22    23 1
    27    24    23 1
    28     8     7 ar
    29     7     6 1
    30     6     5 1
    31     5     2 1
    32     4     2 1
    33     2     3 1
    34     2     1 1
    35     1    33 1
    36     1    34 1
    37     1    35 1
    38     3    36 1
    39     3    37 1
    40     3    38 1
    41     4    39 1
    42     5    40 1
    43     5    41 1
    44     8    42 1
    45    11    43 1
    46    11    44 1
    47    11    45 1
    48    12    46 1
    49    13    47 1
    50    19    48 1
    51    19    49 1
    52    20    50 1
    53    20    51 1
    54    21    52 1
    55    21    53 1
    56    21    54 1
    57    23    55 1
    58    23    56 1
    59    29    57 1
    60    29    58 1
    61    30    59 1
    62    32    60 1
    63    32    61 1
@<TRIPOS>SUBSTRUCTURE
     1 1UX         1 TEMP              0 ****  ****    0 ROOT
