@<TRIPOS>MOLECULE
molecule
   28    30     1     0     0
SMALL
bcc


@<TRIPOS>ATOM
      1 CAC          0.0000     0.0000     0.0000 cc         1 1UZ      -0.332200
      2 CAB          1.4150     0.0000     0.0000 c          1 1UZ       0.583900
      3 OAA          2.0490     0.0010    -1.0430 o          1 1UZ      -0.544100
      4 CAK          2.0940     0.0000     1.3110 ca         1 1UZ      -0.227600
      5 CAJ          3.4840     0.0010     1.4090 ca         1 1UZ      -0.039000
      6 CAI          4.0780     0.0020     2.6510 ca         1 1UZ      -0.163000
      7 CAH          3.3000     0.0010     3.7990 ca         1 1UZ      -0.074000
      8 CAG          1.9240     0.0000     3.7160 ca         1 1UZ      -0.156000
      9 CAF          1.3040     0.0000     2.4730 ca         1 1UZ       0.156100
     10 OAE         -0.0410    -0.0010     2.3690 os         1 1UZ      -0.215200
     11 CAD         -0.6700     0.0060     1.1850 cd         1 1UZ       0.201900
     12 CAL         -2.1460     0.0040     1.1640 ca         1 1UZ      -0.047800
     13 CAM         -2.8610    -0.0040     2.3660 ca         1 1UZ      -0.100000
     14 CAN         -4.2380    -0.0050     2.3470 ca         1 1UZ      -0.095500
     15 CAO         -4.9200     0.0010     1.1270 ca         1 1UZ       0.001000
     16 CAR         -6.3520     0.0000     1.1080 cg         1 1UZ       0.231800
     17 NAS         -7.4880     0.0120     1.0770 n1         1 1UZ      -0.348800
     18 CAP         -4.2050     0.0090    -0.0740 ca         1 1UZ      -0.095500
     19 CAQ         -2.8290     0.0170    -0.0550 ca         1 1UZ      -0.100000
     20 H1          -0.5440     0.1520    -0.9240 ha         1 1UZ       0.169000
     21 H2           4.0900    -0.0660     0.5130 ha         1 1UZ       0.160000
     22 H3           5.1580     0.0030     2.7350 ha         1 1UZ       0.140000
     23 H4           3.7720     0.0020     4.7740 ha         1 1UZ       0.140000
     24 H5           1.3260    -0.0000     4.6200 ha         1 1UZ       0.147000
     25 H6          -2.3330    -0.0510     3.3100 ha         1 1UZ       0.153500
     26 H7          -4.7920    -0.0110     3.2770 ha         1 1UZ       0.149500
     27 H8          -4.7340     0.0140    -1.0190 ha         1 1UZ       0.149500
     28 H9          -2.2750    -0.0140    -0.9860 ha         1 1UZ       0.153500
@<TRIPOS>BOND
     1    17    16 3
     2    16    15 1
     3    15    14 ar
     4    15    18 ar
     5    14    13 ar
     6    18    19 ar
     7    13    12 ar
     8    19    12 ar
     9    12    11 1
    10    11    10 1
    11    11     1 2
    12    10     9 1
    13     1     2 1
    14     9     8 ar
    15     9     4 ar
    16     8     7 ar
    17     2     4 1
    18     2     3 2
    19     4     5 ar
    20     7     6 ar
    21     5     6 ar
    22     1    20 1
    23     5    21 1
    24     6    22 1
    25     7    23 1
    26     8    24 1
    27    13    25 1
    28    14    26 1
    29    18    27 1
    30    19    28 1
@<TRIPOS>SUBSTRUCTURE
     1 1UZ         1 TEMP              0 ****  ****    0 ROOT
