@<TRIPOS>MOLECULE
1UZ
   28    30     1     0     0
SMALL
bcc


@<TRIPOS>ATOM
      1 CAC         -0.0940     0.2430     0.0410 cc         1 1UZ      -0.308200
      2 CAB          1.3660     0.2620    -0.0530 c          1 1UZ       0.588900
      3 OAA          1.9650     0.4290    -1.1240 o          1 1UZ      -0.539100
      4 CAK          2.0510     0.0650     1.2330 ca         1 1UZ      -0.214600
      5 CAJ          3.4510     0.0590     1.3240 ca         1 1UZ      -0.046000
      6 CAI          4.0740    -0.1290     2.5520 ca         1 1UZ      -0.164000
      7 CAH          3.3080    -0.3160     3.7100 ca         1 1UZ      -0.077000
      8 CAG          1.9210    -0.3150     3.6510 ca         1 1UZ      -0.158000
      9 CAF          1.3000    -0.1220     2.4040 ca         1 1UZ       0.141100
     10 OAE         -0.0870    -0.1350     2.4270 os         1 1UZ      -0.225200
     11 CAD         -0.7380     0.0510     1.2150 cd         1 1UZ       0.185900
     12 CAL         -2.1930     0.0220     1.3840 ca         1 1UZ      -0.051800
     13 CAM         -2.7760     0.4230     2.5940 ca         1 1UZ      -0.100000
     14 CAN         -4.1600     0.4110     2.7440 ca         1 1UZ      -0.097500
     15 CAO         -4.9740    -0.0060     1.6810 ca         1 1UZ       0.003000
     16 CAR         -6.3880    -0.0170     1.8310 cg         1 1UZ       0.226800
     17 NAS         -7.5450    -0.0260     1.9540 n1         1 1UZ      -0.349800
     18 CAP         -4.3940    -0.4130     0.4720 ca         1 1UZ      -0.097500
     19 CAQ         -3.0100    -0.4010     0.3260 ca         1 1UZ      -0.100000
     20 H1          -0.6510     0.4040    -0.8940 ha         1 1UZ       0.169000
     21 H2           4.0390     0.2070     0.4030 ha         1 1UZ       0.162000
     22 H3           5.1720    -0.1330     2.6180 ha         1 1UZ       0.143000
     23 H4           3.8100    -0.4650     4.6780 ha         1 1UZ       0.141000
     24 H5           1.3060    -0.4610     4.5500 ha         1 1UZ       0.154000
     25 H6          -2.1330     0.7450     3.4290 ha         1 1UZ       0.154000
     26 H7          -4.6140     0.7290     3.6950 ha         1 1UZ       0.152000
     27 H8          -5.0330    -0.7450    -0.3620 ha         1 1UZ       0.152000
     28 H9          -2.5590    -0.7310    -0.6230 ha         1 1UZ       0.154000
@<TRIPOS>BOND
     1     1     2 1   
     2     1    11 2   
     3     1    20 1   
     4     2     3 2   
     5     2     4 1   
     6     4     5 ar  
     7     4     9 ar  
     8     5     6 ar  
     9     5    21 1   
    10     6     7 ar  
    11     6    22 1   
    12     7     8 ar  
    13     7    23 1   
    14     8     9 ar  
    15     8    24 1   
    16     9    10 1   
    17    10    11 1   
    18    11    12 1   
    19    12    13 ar  
    20    12    19 ar  
    21    13    14 ar  
    22    13    25 1   
    23    14    15 ar  
    24    14    26 1   
    25    15    16 1   
    26    15    18 ar  
    27    16    17 3   
    28    18    19 ar  
    29    18    27 1   
    30    19    28 1   
@<TRIPOS>SUBSTRUCTURE
     1 1UZ         1 TEMP              0 ****  ****    0 ROOT
