@<TRIPOS>MOLECULE
1UZ
   28    30     1     0     0
SMALL
bcc


@<TRIPOS>ATOM
      1 CAC          0.0000     0.0000     0.0000 cc         1 1UZ      -0.334200
      2 CAB          1.4150     0.0000     0.0000 c          1 1UZ       0.643900
      3 OAA          2.0490     0.0010    -1.0430 o          1 1UZ      -0.579100
      4 CAK          2.0940     0.0000     1.3110 ca         1 1UZ      -0.242600
      5 CAJ          3.4840     0.0010     1.4090 ca         1 1UZ       0.001000
      6 CAI          4.0780     0.0020     2.6510 ca         1 1UZ      -0.142000
      7 CAH          3.3000     0.0010     3.7990 ca         1 1UZ      -0.039000
      8 CAG          1.9240     0.0000     3.7160 ca         1 1UZ      -0.142000
      9 CAF          1.3040     0.0000     2.4730 ca         1 1UZ       0.160100
     10 OAE         -0.0410    -0.0010     2.3690 os         1 1UZ      -0.179200
     11 CAD         -0.6700     0.0060     1.1850 cd         1 1UZ       0.211900
     12 CAL         -2.1460     0.0040     1.1640 ca         1 1UZ      -0.056800
     13 CAM         -2.8610    -0.0040     2.3660 ca         1 1UZ      -0.074500
     14 CAN         -4.2380    -0.0050     2.3470 ca         1 1UZ      -0.074000
     15 CAO         -4.9200     0.0010     1.1270 ca         1 1UZ       0.046000
     16 CAR         -6.3520     0.0000     1.1080 cg         1 1UZ       0.221800
     17 NAS         -7.4880     0.0120     1.0770 n1         1 1UZ      -0.366800
     18 CAP         -4.2050     0.0090    -0.0740 ca         1 1UZ      -0.074000
     19 CAQ         -2.8290     0.0170    -0.0550 ca         1 1UZ      -0.074500
     20 H1          -0.5440     0.1520    -0.9240 ha         1 1UZ       0.149000
     21 H2           4.0900    -0.0660     0.5130 ha         1 1UZ       0.126000
     22 H3           5.1580     0.0030     2.7350 ha         1 1UZ       0.111000
     23 H4           3.7720     0.0020     4.7740 ha         1 1UZ       0.105000
     24 H5           1.3260    -0.0000     4.6200 ha         1 1UZ       0.118000
     25 H6          -2.3330    -0.0510     3.3100 ha         1 1UZ       0.124000
     26 H7          -4.7920    -0.0110     3.2770 ha         1 1UZ       0.118500
     27 H8          -4.7340     0.0140    -1.0190 ha         1 1UZ       0.118500
     28 H9          -2.2750    -0.0140    -0.9860 ha         1 1UZ       0.124000
@<TRIPOS>BOND
     1     1     2 1   
     2     1    11 2   
     3     1    20 1   
     4     2     3 2   
     5     2     4 1   
     6     4     5 ar  
     7     4     9 ar  
     8     5     6 ar  
     9     5    21 1   
    10     6     7 ar  
    11     6    22 1   
    12     7     8 ar  
    13     7    23 1   
    14     8     9 ar  
    15     8    24 1   
    16     9    10 1   
    17    10    11 1   
    18    11    12 1   
    19    12    13 ar  
    20    12    19 ar  
    21    13    14 ar  
    22    13    25 1   
    23    14    15 ar  
    24    14    26 1   
    25    15    16 1   
    26    15    18 ar  
    27    16    17 3   
    28    18    19 ar  
    29    18    27 1   
    30    19    28 1   
@<TRIPOS>SUBSTRUCTURE
     1 1UZ         1 TEMP              0 ****  ****    0 ROOT
