@<TRIPOS>MOLECULE
molecule
   29    31     1     0     0
SMALL
bcc


@<TRIPOS>ATOM
      1 CAC          0.0000     0.0000     0.0000 cc         1 1V0      -0.320200
      2 CAE          1.4150     0.0000     0.0000 c          1 1V0       0.582900
      3 OAL          2.0490     0.0010    -1.0420 o          1 1V0      -0.538100
      4 CAF          2.0930     0.0000     1.3120 ca         1 1V0      -0.228600
      5 CAQ          3.4830     0.0010     1.4090 ca         1 1V0      -0.038000
      6 CAS          4.0780     0.0010     2.6520 ca         1 1V0      -0.162000
      7 CAT          3.3000     0.0000     3.8000 ca         1 1V0      -0.073000
      8 CAR          1.9230    -0.0010     3.7170 ca         1 1V0      -0.154000
      9 CAG          1.3040     0.0000     2.4730 ca         1 1V0       0.155100
     10 OAD         -0.0410    -0.0010     2.3690 os         1 1V0      -0.215200
     11 CAA         -0.6700     0.0050     1.1840 cd         1 1V0       0.191900
     12 CAI         -2.1470     0.0050     1.1630 ca         1 1V0      -0.023800
     13 CAO         -2.8650    -0.0010     2.3610 ca         1 1V0      -0.106000
     14 CAM         -4.2440    -0.0010     2.3340 ca         1 1V0      -0.073500
     15 CAH         -4.9150     0.0050     1.1250 ca         1 1V0      -0.142200
     16 NAB         -6.3950     0.0000     1.1040 no         1 1V0       0.290200
     17 OAK         -6.9900     0.0010     0.0410 o          1 1V0      -0.199500
     18 OAJ         -7.0190    -0.0050     2.1510 o          1 1V0      -0.199500
     19 CAN         -4.2100     0.0120    -0.0660 ca         1 1V0      -0.073500
     20 CAP         -2.8310     0.0170    -0.0540 ca         1 1V0      -0.106000
     21 H1          -0.5460     0.0050    -0.9360 ha         1 1V0       0.170000
     22 H2           4.0930     0.0010     0.5130 ha         1 1V0       0.161000
     23 H3           5.1580     0.0020     2.7340 ha         1 1V0       0.142000
     24 H4           3.7780     0.0000     4.7720 ha         1 1V0       0.142000
     25 H5           1.3250    -0.0010     4.6200 ha         1 1V0       0.148000
     26 H6          -2.3400    -0.0050     3.3090 ha         1 1V0       0.162000
     27 H7          -4.8020    -0.0050     3.2630 ha         1 1V0       0.172500
     28 H8          -4.7420     0.0190    -1.0090 ha         1 1V0       0.172500
     29 H9          -2.2810     0.0220    -0.9870 ha         1 1V0       0.162000
@<TRIPOS>BOND
     1    17    16 1   
     2    18    16 1   
     3    16    15 1   
     4    15    19 ar  
     5    15    14 ar  
     6    19    20 ar  
     7    14    13 ar  
     8    20    12 ar  
     9    13    12 ar  
    10    12    11 1   
    11    11    10 1   
    12    11     1 2   
    13    10     9 1   
    14     1     2 1   
    15     9     8 ar  
    16     9     4 ar  
    17     8     7 ar  
    18     2     4 1   
    19     2     3 2   
    20     4     5 ar  
    21     7     6 ar  
    22     5     6 ar  
    23     1    21 1   
    24     5    22 1   
    25     6    23 1   
    26     7    24 1   
    27     8    25 1   
    28    13    26 1   
    29    14    27 1   
    30    19    28 1   
    31    20    29 1   
@<TRIPOS>SUBSTRUCTURE
     1 1V0         1 TEMP              0 ****  ****    0 ROOT
