@<TRIPOS>MOLECULE
1V0
   29    31     1     0     0
SMALL
bcc


@<TRIPOS>ATOM
      1 CAC         -0.0370     0.3140     0.0840 cc         1 1V0      -0.297200
      2 CAE          1.4250     0.3320    -0.0180 c          1 1V0       0.587900
      3 OAL          2.0150     0.5170    -1.0900 o          1 1V0      -0.534100
      4 CAF          2.1160     0.1130     1.2610 ca         1 1V0      -0.214600
      5 CAQ          3.5170     0.1030     1.3440 ca         1 1V0      -0.045000
      6 CAS          4.1450    -0.1080     2.5640 ca         1 1V0      -0.162000
      7 CAT          3.3870    -0.3120     3.7240 ca         1 1V0      -0.075000
      8 CAR          1.9980    -0.3070     3.6730 ca         1 1V0      -0.157000
      9 CAG          1.3720    -0.0920     2.4330 ca         1 1V0       0.141100
     10 OAD         -0.0160    -0.1010     2.4640 os         1 1V0      -0.225200
     11 CAA         -0.6720     0.1040     1.2580 cd         1 1V0       0.175900
     12 CAI         -2.1270     0.0770     1.4350 ca         1 1V0      -0.028800
     13 CAO         -2.9510    -0.3290     0.3760 ca         1 1V0      -0.108000
     14 CAM         -4.3350    -0.3420     0.5250 ca         1 1V0      -0.073000
     15 CAH         -4.8970     0.0540     1.7500 ca         1 1V0      -0.161200
     16 NAB         -6.3750     0.0440     1.9160 no         1 1V0       0.311200
     17 OAK         -7.0610    -0.3040     0.9920 o          1 1V0      -0.202500
     18 OAJ         -6.8430     0.3840     2.9690 o          1 1V0      -0.202500
     19 CAN         -4.0820     0.4560     2.8200 ca         1 1V0      -0.073000
     20 CAP         -2.7000     0.4630     2.6560 ca         1 1V0      -0.108000
     21 H1          -0.5970     0.4890    -0.8470 ha         1 1V0       0.170000
     22 H2           4.1000     0.2650     0.4220 ha         1 1V0       0.163000
     23 H3           5.2440    -0.1150     2.6240 ha         1 1V0       0.144000
     24 H4           3.8940    -0.4790     4.6870 ha         1 1V0       0.143000
     25 H5           1.3880    -0.4680     4.5730 ha         1 1V0       0.155000
     26 H6          -2.5070    -0.6480    -0.5810 ha         1 1V0       0.161000
     27 H7          -4.9830    -0.6600    -0.3090 ha         1 1V0       0.176500
     28 H8          -4.5330     0.7620     3.7800 ha         1 1V0       0.176500
     29 H9          -2.0500     0.7720     3.4910 ha         1 1V0       0.161000
@<TRIPOS>BOND
     1     1     2 1   
     2     1    11 2   
     3     1    21 1   
     4     2     3 2   
     5     2     4 1   
     6     4     5 ar  
     7     4     9 ar  
     8     5     6 ar  
     9     5    22 1   
    10     6     7 ar  
    11     6    23 1   
    12     7     8 ar  
    13     7    24 1   
    14     8     9 ar  
    15     8    25 1   
    16     9    10 1   
    17    10    11 1   
    18    11    12 1   
    19    12    13 ar  
    20    12    20 ar  
    21    13    14 ar  
    22    13    26 1   
    23    14    15 ar  
    24    14    27 1   
    25    15    16 1   
    26    15    19 ar  
    27    16    17 1   
    28    16    18 1   
    29    19    20 ar  
    30    19    28 1   
    31    20    29 1   
@<TRIPOS>SUBSTRUCTURE
     1 1V0         1 TEMP              0 ****  ****    0 ROOT
