@<TRIPOS>MOLECULE
1V0
   29    31     1     0     0
SMALL
bcc


@<TRIPOS>ATOM
      1 CAC          0.0000     0.0000     0.0000 cc         1 1V0      -0.318200
      2 CAE          1.4150     0.0000     0.0000 c          1 1V0       0.641900
      3 OAL          2.0490     0.0010    -1.0420 o          1 1V0      -0.572100
      4 CAF          2.0930     0.0000     1.3120 ca         1 1V0      -0.242600
      5 CAQ          3.4830     0.0010     1.4090 ca         1 1V0       0.001000
      6 CAS          4.0780     0.0010     2.6520 ca         1 1V0      -0.141000
      7 CAT          3.3000     0.0000     3.8000 ca         1 1V0      -0.037000
      8 CAR          1.9230    -0.0010     3.7170 ca         1 1V0      -0.140000
      9 CAG          1.3040     0.0000     2.4730 ca         1 1V0       0.159100
     10 OAD         -0.0410    -0.0010     2.3690 os         1 1V0      -0.179200
     11 CAA         -0.6700     0.0050     1.1840 cd         1 1V0       0.196900
     12 CAI         -2.1470     0.0050     1.1630 ca         1 1V0      -0.011800
     13 CAO         -2.8650    -0.0010     2.3610 ca         1 1V0      -0.097000
     14 CAM         -4.2440    -0.0010     2.3340 ca         1 1V0      -0.010500
     15 CAH         -4.9150     0.0050     1.1250 ca         1 1V0      -0.438200
     16 NAB         -6.3950     0.0000     1.1040 no         1 1V0       1.043200
     17 OAK         -6.9900     0.0010     0.0410 o          1 1V0      -0.445500
     18 OAJ         -7.0190    -0.0050     2.1510 o          1 1V0      -0.445500
     19 CAN         -4.2100     0.0120    -0.0660 ca         1 1V0      -0.010500
     20 CAP         -2.8310     0.0170    -0.0540 ca         1 1V0      -0.097000
     21 H1          -0.5460     0.0050    -0.9360 ha         1 1V0       0.149000
     22 H2           4.0930     0.0010     0.5130 ha         1 1V0       0.127000
     23 H3           5.1580     0.0020     2.7340 ha         1 1V0       0.112000
     24 H4           3.7780     0.0000     4.7720 ha         1 1V0       0.106000
     25 H5           1.3250    -0.0010     4.6200 ha         1 1V0       0.119000
     26 H6          -2.3400    -0.0050     3.3090 ha         1 1V0       0.129500
     27 H7          -4.8020    -0.0050     3.2630 ha         1 1V0       0.136500
     28 H8          -4.7420     0.0190    -1.0090 ha         1 1V0       0.136500
     29 H9          -2.2810     0.0220    -0.9870 ha         1 1V0       0.129500
@<TRIPOS>BOND
     1     1     2 1   
     2     1    11 2   
     3     1    21 1   
     4     2     3 2   
     5     2     4 1   
     6     4     5 ar  
     7     4     9 ar  
     8     5     6 ar  
     9     5    22 1   
    10     6     7 ar  
    11     6    23 1   
    12     7     8 ar  
    13     7    24 1   
    14     8     9 ar  
    15     8    25 1   
    16     9    10 1   
    17    10    11 1   
    18    11    12 1   
    19    12    13 ar  
    20    12    20 ar  
    21    13    14 ar  
    22    13    26 1   
    23    14    15 ar  
    24    14    27 1   
    25    15    16 1   
    26    15    19 ar  
    27    16    17 1   
    28    16    18 1   
    29    19    20 ar  
    30    19    28 1   
    31    20    29 1   
@<TRIPOS>SUBSTRUCTURE
     1 1V0         1 TEMP              0 ****  ****    0 ROOT
