@<TRIPOS>MOLECULE
1V1
   27    29     1     0     0
SMALL
bcc


@<TRIPOS>ATOM
      1 CAB         -0.0300    -0.1640    -0.0430 cc         1 1V1      -0.315200
      2 CAD          1.4310    -0.1340    -0.1080 c          1 1V1       0.589900
      3 OAH          2.0560    -0.1860    -1.1760 o          1 1V1      -0.543100
      4 CAE          2.0860    -0.0370     1.2050 ca         1 1V1      -0.214600
      5 CAO          3.4840    -0.0030     1.3270 ca         1 1V1      -0.046000
      6 CAQ          4.0770     0.0880     2.5790 ca         1 1V1      -0.165000
      7 CAR          3.2850     0.1480     3.7330 ca         1 1V1      -0.078000
      8 CAP          1.8990     0.1160     3.6450 ca         1 1V1      -0.159000
      9 CAF          1.3080     0.0220     2.3710 ca         1 1V1       0.142100
     10 OAC         -0.0790    -0.0040     2.3660 os         1 1V1      -0.225200
     11 CAA         -0.7020    -0.0960     1.1290 cd         1 1V1       0.193900
     12 CAG         -2.1600    -0.1200     1.2690 ca         1 1V1      -0.076800
     13 CAI         -2.7550    -0.6360     2.4290 ca         1 1V1      -0.085000
     14 CAM         -4.1410    -0.6740     2.5500 ca         1 1V1      -0.131500
     15 CAK         -4.9400    -0.1900     1.5080 ca         1 1V1       0.035400
     16 Cl1         -6.6310    -0.2360     1.6520 cl         1 1V1      -0.082400
     17 CAL         -4.3560     0.3340     0.3500 ca         1 1V1      -0.131500
     18 CAJ         -2.9690     0.3690     0.2330 ca         1 1V1      -0.085000
     19 H1          -0.5640    -0.2540    -1.0010 ha         1 1V1       0.169000
     20 H2           4.0920    -0.0500     0.4080 ha         1 1V1       0.161000
     21 H3           5.1730     0.1150     2.6690 ha         1 1V1       0.142000
     22 H4           3.7640     0.2210     4.7210 ha         1 1V1       0.140000
     23 H5           1.2630     0.1630     4.5390 ha         1 1V1       0.154000
     24 H6          -2.1200    -1.0100     3.2470 ha         1 1V1       0.151000
     25 H7          -4.6030    -1.0830     3.4620 ha         1 1V1       0.153500
     26 H8          -4.9860     0.7180    -0.4660 ha         1 1V1       0.153500
     27 H9          -2.5100     0.7900    -0.6750 ha         1 1V1       0.151000
@<TRIPOS>BOND
     1     1     2 1   
     2     1    11 2   
     3     1    19 1   
     4     2     3 2   
     5     2     4 1   
     6     4     5 ar  
     7     4     9 ar  
     8     5     6 ar  
     9     5    20 1   
    10     6     7 ar  
    11     6    21 1   
    12     7     8 ar  
    13     7    22 1   
    14     8     9 ar  
    15     8    23 1   
    16     9    10 1   
    17    10    11 1   
    18    11    12 1   
    19    12    13 ar  
    20    12    18 ar  
    21    13    14 ar  
    22    13    24 1   
    23    14    15 ar  
    24    14    25 1   
    25    15    16 1   
    26    15    17 ar  
    27    17    18 ar  
    28    17    26 1   
    29    18    27 1   
@<TRIPOS>SUBSTRUCTURE
     1 1V1         1 TEMP              0 ****  ****    0 ROOT
