@<TRIPOS>MOLECULE
1V1
   27    29     1     0     0
SMALL
bcc


@<TRIPOS>ATOM
      1 CAB         0.0570   -0.2660   -0.0750 cc        1 1V1     -0.315200
      2 CAD         1.5200   -0.2900   -0.0680 c         1 1V1      0.589900
      3 OAH         2.1920   -0.4660   -1.0940 o         1 1V1     -0.543100
      4 CAE         2.1150   -0.0900    1.2620 ca        1 1V1     -0.214600
      5 CAO         3.5060   -0.0900    1.4500 ca        1 1V1     -0.046000
      6 CAQ         4.0420    0.1020    2.7170 ca        1 1V1     -0.165000
      7 CAR         3.2000    0.2980    3.8180 ca        1 1V1     -0.078000
      8 CAP         1.8200    0.3030    3.6630 ca        1 1V1     -0.159000
      9 CAF         1.2860    0.1070    2.3760 ca        1 1V1      0.142100
     10 OAC        -0.0990    0.1270    2.3030 os        1 1V1     -0.225200
     11 CAA        -0.6660   -0.0630    1.0500 cd        1 1V1      0.193900
     12 CAG        -2.1290   -0.0260    1.1180 ca        1 1V1     -0.076800
     13 CAI        -2.7970   -0.4070    2.2900 ca        1 1V1     -0.085000
     14 CAM        -4.1880   -0.3880    2.3440 ca        1 1V1     -0.131500
     15 CAK        -4.9180    0.0190    1.2220 ca        1 1V1      0.035400
     16 CL1        -6.6150    0.0430    1.2840 cl        1 1V1     -0.082400
     17 CAL        -4.2600    0.4090    0.0510 ca        1 1V1     -0.131500
     18 CAJ        -2.8690    0.3870    0.0010 ca        1 1V1     -0.085000
     19 H1         -0.4340   -0.4300   -1.0450 ha        1 1V1      0.169000
     20 H2          4.1550   -0.2450    0.5720 ha        1 1V1      0.161000
     21 H3          5.1330    0.1010    2.8580 ha        1 1V1      0.142000
     22 H4          3.6340    0.4500    4.8180 ha        1 1V1      0.140000
     23 H5          1.1440    0.4580    4.5160 ha        1 1V1      0.154000
     24 H6         -2.2160   -0.7220    3.1710 ha        1 1V1      0.151000
     25 H7         -4.7070   -0.6920    3.2660 ha        1 1V1      0.153500
     26 H8         -4.8370    0.7330   -0.8300 ha        1 1V1      0.153500
     27 H9         -2.3520    0.7030   -0.9190 ha        1 1V1      0.151000
@<TRIPOS>BOND
     1    1    2 1   
     2    1   11 2   
     3    1   19 1   
     4    2    3 2   
     5    2    4 1   
     6    4    5 ar  
     7    4    9 ar  
     8    5    6 ar  
     9    5   20 1   
    10    6    7 ar  
    11    6   21 1   
    12    7    8 ar  
    13    7   22 1   
    14    8    9 ar  
    15    8   23 1   
    16    9   10 1   
    17   10   11 1   
    18   11   12 1   
    19   12   13 ar  
    20   12   18 ar  
    21   13   14 ar  
    22   13   24 1   
    23   14   15 ar  
    24   14   25 1   
    25   15   16 1   
    26   15   17 ar  
    27   17   18 ar  
    28   17   26 1   
    29   18   27 1   
@<TRIPOS>SUBSTRUCTURE
     1 1V1         1 TEMP              0 ****  ****    0 ROOT
