@<TRIPOS>MOLECULE
molecule
   27    29     1     0     0
SMALL
bcc


@<TRIPOS>ATOM
      1 CAB          0.0000     0.0000     0.0000 cc         1 1V1      -0.338200
      2 CAD          1.4140     0.0000     0.0000 c          1 1V1       0.585900
      3 OAH          2.0480     0.0020    -1.0420 o          1 1V1      -0.547100
      4 CAE          2.0930     0.0000     1.3110 ca         1 1V1      -0.228600
      5 CAO          3.4830     0.0010     1.4080 ca         1 1V1      -0.039000
      6 CAQ          4.0780     0.0020     2.6510 ca         1 1V1      -0.165000
      7 CAR          3.2990     0.0010     3.7990 ca         1 1V1      -0.075000
      8 CAP          1.9230     0.0000     3.7170 ca         1 1V1      -0.156000
      9 CAF          1.3040     0.0000     2.4730 ca         1 1V1       0.156100
     10 OAC         -0.0410    -0.0010     2.3700 os         1 1V1      -0.216200
     11 CAA         -0.6710     0.0060     1.1840 cd         1 1V1       0.208900
     12 CAG         -2.1460     0.0040     1.1640 ca         1 1V1      -0.070800
     13 CAI         -2.8640    -0.0040     2.3620 ca         1 1V1      -0.085500
     14 CAM         -4.2430    -0.0050     2.3370 ca         1 1V1      -0.127000
     15 CAK         -4.9160     0.0010     1.1260 ca         1 1V1       0.046400
     16 Cl1         -6.6520     0.0000     1.1020 cl         1 1V1      -0.098400
     17 CAL         -4.2090     0.0090    -0.0660 ca         1 1V1      -0.127000
     18 CAJ         -2.8310     0.0160    -0.0540 ca         1 1V1      -0.085500
     19 H1          -0.5450     0.0060    -0.9360 ha         1 1V1       0.169000
     20 H2           4.0920     0.0010     0.5120 ha         1 1V1       0.160000
     21 H3           5.1580     0.0030     2.7320 ha         1 1V1       0.139000
     22 H4           3.7780     0.0020     4.7710 ha         1 1V1       0.139000
     23 H5           1.3260    -0.0000     4.6200 ha         1 1V1       0.147000
     24 H6          -2.3390    -0.0080     3.3100 ha         1 1V1       0.151500
     25 H7          -4.8010    -0.0110     3.2650 ha         1 1V1       0.151500
     26 H8          -4.7410     0.0160    -1.0100 ha         1 1V1       0.151500
     27 H9          -2.2800     0.0220    -0.9860 ha         1 1V1       0.151500
@<TRIPOS>BOND
     1    16    15 1   
     2    15    14 ar  
     3    15    17 ar  
     4    14    13 ar  
     5    17    18 ar  
     6    13    12 ar  
     7    18    12 ar  
     8    12    11 1   
     9    11    10 1   
    10    11     1 2   
    11    10     9 1   
    12     1     2 1   
    13     9     8 ar  
    14     9     4 ar  
    15     8     7 ar  
    16     2     4 1   
    17     2     3 2   
    18     4     5 ar  
    19     7     6 ar  
    20     5     6 ar  
    21     1    19 1   
    22     5    20 1   
    23     6    21 1   
    24     7    22 1   
    25     8    23 1   
    26    13    24 1   
    27    14    25 1   
    28    17    26 1   
    29    18    27 1   
@<TRIPOS>SUBSTRUCTURE
     1 1V1         1 TEMP              0 ****  ****    0 ROOT
