@<TRIPOS>MOLECULE
molecule
   56    59     1     0     0
SMALL
bcc


@<TRIPOS>ATOM
      1 C13          0.0000     0.0000     0.0000 ca         1 1V2      -0.083000
      2 C14          1.3810     0.0000     0.0000 ca         1 1V2       0.024400
      3 Cl1          2.2480     0.0020    -1.5040 cl         1 1V2      -0.086400
      4 C15          2.0760     0.0000     1.2000 ca         1 1V2       0.032400
      5 Cl2          3.8120     0.0020     1.1930 cl         1 1V2      -0.088400
      6 C16          1.3900    -0.0010     2.4010 ca         1 1V2      -0.117000
      7 C17          0.0100    -0.0020     2.4120 ca         1 1V2      -0.110000
      8 C12         -0.6940    -0.0010     1.2090 ca         1 1V2      -0.108500
      9 C11         -2.1780    -0.0020     1.2160 cc         1 1V2       0.460800
     10 N3          -2.8950    -0.0060     0.0930 nd         1 1V2      -0.757000
     11 C10         -2.8920    -0.0030     2.3540 cd         1 1V2      -0.208400
     12 S1          -4.6030    -0.0040     1.9330 ss         1 1V2      -0.240300
     13 C9          -4.1860    -0.0070     0.2230 cc         1 1V2       0.743300
     14 N1          -5.0950    -0.0110    -0.8240 nu         1 1V2      -0.750300
     15 C1          -6.4610     0.1320    -0.5630 ca         1 1V2       0.146600
     16 C3          -6.8910     0.9780     0.4510 ca         1 1V2      -0.163000
     17 C5          -8.2420     1.1160     0.7050 ca         1 1V2      -0.096000
     18 C2          -7.3900    -0.5690    -1.3220 ca         1 1V2      -0.163000
     19 C4          -8.7390    -0.4270    -1.0620 ca         1 1V2      -0.096000
     20 C6          -9.1640     0.4130    -0.0480 ca         1 1V2      -0.101300
     21 C7         -10.6370     0.5660     0.2340 c3         1 1V2      -0.035100
     22 C8         -11.2010     1.7110    -0.6110 c3         1 1V2       0.161800
     23 N2         -12.6360     1.8590    -0.3370 n3         1 1V2      -0.713600
     24 C22        -12.8670     2.2660     1.0550 c3         1 1V2       0.160800
     25 C21        -14.3700     2.2700     1.3450 c3         1 1V2      -0.088400
     26 C20        -15.0660     3.2410     0.3880 c3         1 1V2       0.145100
     27 O2         -16.4770     3.2080     0.6160 oh         1 1V2      -0.601800
     28 C19        -14.7700     2.8250    -1.0550 c3         1 1V2      -0.083400
     29 C18        -13.2560     2.8050    -1.2750 c3         1 1V2       0.178500
     30 C23        -12.9550     2.3690    -2.7100 c3         1 1V2       0.142400
     31 O1         -13.5510     1.0940    -2.9560 oh         1 1V2      -0.590800
     32 H1          -0.5430     0.0010    -0.9380 ha         1 1V2       0.171000
     33 H2           1.9380    -0.0020     3.3360 ha         1 1V2       0.150000
     34 H3          -0.5260    -0.0030     3.3540 ha         1 1V2       0.141000
     35 H4          -2.4860    -0.0020     3.3580 h4         1 1V2       0.182000
     36 H5          -4.7700    -0.0780    -1.7680 hn         1 1V2       0.469800
     37 H6          -6.1680     1.5290     1.0410 ha         1 1V2       0.143500
     38 H7          -8.5790     1.7740     1.4970 ha         1 1V2       0.138500
     39 H8          -7.0580    -1.2260    -2.1160 ha         1 1V2       0.143500
     40 H9          -9.4650    -0.9740    -1.6510 ha         1 1V2       0.138500
     41 H10        -11.1500    -0.3550    -0.0160 hc         1 1V2       0.059700
     42 H11        -10.7820     0.7860     1.2850 hc         1 1V2       0.059700
     43 H12        -10.6890     2.6310    -0.3600 h1         1 1V2       0.037700
     44 H13        -11.0550     1.4910    -1.6610 h1         1 1V2       0.037700
     45 H15        -12.4680     3.2610     1.2100 h1         1 1V2       0.034200
     46 H16        -12.3740     1.5660     1.7200 h1         1 1V2       0.034200
     47 H17        -14.7680     1.2730     1.1990 hc         1 1V2       0.060200
     48 H18        -14.5390     2.5870     2.3670 hc         1 1V2       0.060200
     49 H19        -14.6910     4.2440     0.5570 h1         1 1V2       0.021700
     50 H20        -16.7810     4.0730     0.8350 ho         1 1V2       0.399000
     51 H21        -15.2240     3.5350    -1.7350 hc         1 1V2       0.066700
     52 H22        -15.1740     1.8360    -1.2340 hc         1 1V2       0.066700
     53 H23        -12.8550     3.7960    -1.1020 h1         1 1V2       0.024700
     54 H24        -13.3630     3.0980    -3.4010 h1         1 1V2       0.023700
     55 H25        -11.8830     2.3000    -2.8500 h1         1 1V2       0.023700
     56 H26        -13.5560     0.9230    -3.8830 ho         1 1V2       0.396000
@<TRIPOS>BOND
     1    27    26 1   
     2    26    25 1   
     3    26    28 1   
     4    25    24 1   
     5    28    29 1   
     6    24    23 1   
     7    29    23 1   
     8    29    30 1   
     9    23    22 1   
    10    31    30 1   
    11    22    21 1   
    12    21    20 1   
    13    20    17 ar  
    14    20    19 ar  
    15    17    16 ar  
    16    19    18 ar  
    17    16    15 ar  
    18    18    15 ar  
    19    15    14 1   
    20    14    13 1   
    21    13    10 2   
    22    13    12 1   
    23    10     9 1   
    24     3     2 1   
    25     1     2 ar  
    26     1     8 ar  
    27    12    11 1   
    28     9     8 1   
    29     9    11 2   
    30     2     4 ar  
    31     8     7 ar  
    32     4     5 1   
    33     4     6 ar  
    34     7     6 ar  
    35     1    32 1   
    36     6    33 1   
    37     7    34 1   
    38    11    35 1   
    39    14    36 1   
    40    16    37 1   
    41    17    38 1   
    42    18    39 1   
    43    19    40 1   
    44    21    41 1   
    45    21    42 1   
    46    22    43 1   
    47    22    44 1   
    48    24    45 1   
    49    24    46 1   
    50    25    47 1   
    51    25    48 1   
    52    26    49 1   
    53    27    50 1   
    54    28    51 1   
    55    28    52 1   
    56    29    53 1   
    57    30    54 1   
    58    30    55 1   
    59    31    56 1   
@<TRIPOS>SUBSTRUCTURE
     1 1V2         1 TEMP              0 ****  ****    0 ROOT
