@<TRIPOS>MOLECULE
1V2
   56    59     1     0     0
SMALL
bcc


@<TRIPOS>ATOM
      1 C13          0.2350    -0.9600     0.6850 ca         1 1V2      -0.086000
      2 C14          1.6180    -1.0260     0.8870 ca         1 1V2       0.012400
      3 Cl1          2.5050    -2.2320     0.0890 cl         1 1V2      -0.067400
      4 C15          2.2510    -0.1080     1.7380 ca         1 1V2       0.021400
      5 Cl2          3.9240    -0.1640     2.0040 cl         1 1V2      -0.067400
      6 C16          1.4910     0.8770     2.3800 ca         1 1V2      -0.122000
      7 C17          0.1170     0.9430     2.1790 ca         1 1V2      -0.111000
      8 C12         -0.5230     0.0230     1.3340 ca         1 1V2      -0.107500
      9 C11         -1.9680     0.0970     1.1450 cc         1 1V2       0.395800
     10 N3          -2.5770    -0.3490    -0.0230 nc         1 1V2      -0.636000
     11 C10         -2.8560     0.6040     2.1000 cd         1 1V2      -0.268400
     12 S1          -4.4210     0.5530     1.5640 ss         1 1V2      -0.015300
     13 C9          -3.9060    -0.1610     0.0630 cd         1 1V2       0.559300
     14 N1          -4.8920    -0.4780    -0.8980 nu         1 1V2      -0.674300
     15 C1          -4.7470     0.0700    -2.2000 ca         1 1V2       0.119600
     16 C3          -5.3050    -0.6110    -3.3060 ca         1 1V2      -0.155000
     17 C5          -5.2790    -0.0340    -4.5700 ca         1 1V2      -0.100000
     18 C2          -4.1510     1.3300    -2.4140 ca         1 1V2      -0.155000
     19 C4          -4.1300     1.8890    -3.6870 ca         1 1V2      -0.100000
     20 C6          -4.6920     1.2190    -4.7770 ca         1 1V2      -0.106300
     21 C7          -4.6760     1.8270    -6.1350 c3         1 1V2      -0.036100
     22 C8          -3.5910     1.1690    -6.9930 c3         1 1V2       0.165800
     23 N2          -3.6380     1.4970    -8.4150 n3         1 1V2      -0.732600
     24 C22         -3.8220     2.9230    -8.6580 c3         1 1V2       0.167800
     25 C21         -3.8580     3.3090   -10.1320 c3         1 1V2      -0.077400
     26 C20         -2.6140     2.7950   -10.8400 c3         1 1V2       0.141100
     27 O2          -2.7650     3.1090   -12.2190 oh         1 1V2      -0.597800
     28 C19         -2.4800     1.2950   -10.6210 c3         1 1V2      -0.113400
     29 C18         -2.4750     0.9470    -9.1280 c3         1 1V2       0.147500
     30 C23         -2.3750    -0.5910    -9.0170 c3         1 1V2       0.134400
     31 O1          -3.4760    -1.2710    -9.5760 oh         1 1V2      -0.598800
     32 H1          -0.2520    -1.6830     0.0110 ha         1 1V2       0.169000
     33 H2           1.9850     1.6030     3.0440 ha         1 1V2       0.152000
     34 H3          -0.4680     1.7280     2.6810 ha         1 1V2       0.141000
     35 H4          -2.5590     0.9740     3.0800 h4         1 1V2       0.186000
     36 H5          -5.0570    -1.4720    -0.9280 hn         1 1V2       0.407800
     37 H6          -5.7710    -1.5990    -3.1750 ha         1 1V2       0.137000
     38 H7          -5.7240    -0.5730    -5.4210 ha         1 1V2       0.135000
     39 H8          -3.6940     1.8780    -1.5760 ha         1 1V2       0.137000
     40 H9          -3.6610     2.8750    -3.8330 ha         1 1V2       0.135000
     41 H10         -4.4830     2.9300    -6.0560 hc         1 1V2       0.055200
     42 H11         -5.6820     1.6910    -6.6160 hc         1 1V2       0.055200
     43 H12         -2.5870     1.4220    -6.5410 h1         1 1V2       0.037700
     44 H13         -3.7310     0.0520    -6.9170 h1         1 1V2       0.037700
     45 H15         -3.0190     3.5320    -8.1460 h1         1 1V2       0.034200
     46 H16         -4.8140     3.2140    -8.2070 h1         1 1V2       0.034200
     47 H17         -3.9100     4.4240   -10.2150 hc         1 1V2       0.063200
     48 H18         -4.7680     2.8850   -10.6290 hc         1 1V2       0.063200
     49 H19         -1.6970     3.3210   -10.4470 h1         1 1V2       0.029700
     50 H20         -2.0540     2.6580   -12.6880 ho         1 1V2       0.400000
     51 H21         -1.5240     0.9270   -11.0730 hc         1 1V2       0.061700
     52 H22         -3.3270     0.7610   -11.1290 hc         1 1V2       0.061700
     53 H23         -1.5180     1.3620    -8.6800 h1         1 1V2       0.026700
     54 H24         -2.2300    -0.9030    -7.9480 h1         1 1V2       0.044700
     55 H25         -1.4920    -0.9400    -9.6190 h1         1 1V2       0.044700
     56 H26         -4.2800    -0.8990    -9.1920 ho         1 1V2       0.414000
@<TRIPOS>BOND
     1     1     2 ar  
     2     1     8 ar  
     3     1    32 1   
     4     2     3 1   
     5     2     4 ar  
     6     4     5 1   
     7     4     6 ar  
     8     6     7 ar  
     9     6    33 1   
    10     7     8 ar  
    11     7    34 1   
    12     8     9 1   
    13     9    10 1   
    14     9    11 2   
    15    10    13 2   
    16    11    12 1   
    17    11    35 1   
    18    12    13 1   
    19    13    14 1   
    20    14    15 1   
    21    14    36 1   
    22    15    16 ar  
    23    15    18 ar  
    24    16    17 ar  
    25    16    37 1   
    26    17    20 ar  
    27    17    38 1   
    28    18    19 ar  
    29    18    39 1   
    30    19    20 ar  
    31    19    40 1   
    32    20    21 1   
    33    21    22 1   
    34    21    41 1   
    35    21    42 1   
    36    22    23 1   
    37    22    43 1   
    38    22    44 1   
    39    23    24 1   
    40    23    29 1   
    41    24    25 1   
    42    24    45 1   
    43    24    46 1   
    44    25    26 1   
    45    25    47 1   
    46    25    48 1   
    47    26    27 1   
    48    26    28 1   
    49    26    49 1   
    50    27    50 1   
    51    28    29 1   
    52    28    51 1   
    53    28    52 1   
    54    29    30 1   
    55    29    53 1   
    56    30    31 1   
    57    30    54 1   
    58    30    55 1   
    59    31    56 1   
@<TRIPOS>SUBSTRUCTURE
     1 1V2         1 TEMP              0 ****  ****    0 ROOT
