@<TRIPOS>MOLECULE
1V2
   56    59     1     0     0
SMALL
bcc


@<TRIPOS>ATOM
      1 C13          0.0000     0.0000     0.0000 ca         1 1V2      -0.061000
      2 C14          1.3810     0.0000     0.0000 ca         1 1V2      -0.044600
      3 Cl1          2.2480     0.0020    -1.5040 cl         1 1V2      -0.005400
      4 C15          2.0760     0.0000     1.2000 ca         1 1V2      -0.036600
      5 Cl2          3.8120     0.0020     1.1930 cl         1 1V2      -0.006400
      6 C16          1.3900    -0.0010     2.4010 ca         1 1V2      -0.092000
      7 C17          0.0100    -0.0020     2.4120 ca         1 1V2      -0.086000
      8 C12         -0.6940    -0.0010     1.2090 ca         1 1V2      -0.117500
      9 C11         -2.1780    -0.0020     1.2160 cc         1 1V2       0.434800
     10 N3          -2.8950    -0.0060     0.0930 nc         1 1V2      -0.653000
     11 C10         -2.8920    -0.0030     2.3540 cd         1 1V2      -0.154400
     12 S1          -4.6030    -0.0040     1.9330 ss         1 1V2      -0.337300
     13 C9          -4.1860    -0.0070     0.2230 cd         1 1V2       0.572300
     14 N1          -5.0950    -0.0110    -0.8240 nu         1 1V2      -0.262300
     15 C1          -6.4610     0.1320    -0.5630 ca         1 1V2      -0.022400
     16 C3          -6.8910     0.9780     0.4510 ca         1 1V2      -0.133000
     17 C5          -8.2420     1.1160     0.7050 ca         1 1V2      -0.068500
     18 C2          -7.3900    -0.5690    -1.3220 ca         1 1V2      -0.133000
     19 C4          -8.7390    -0.4270    -1.0620 ca         1 1V2      -0.068500
     20 C6          -9.1640     0.4130    -0.0480 ca         1 1V2      -0.100300
     21 C7         -10.6370     0.5660     0.2340 c3         1 1V2       0.022900
     22 C8         -11.2010     1.7110    -0.6110 c3         1 1V2       0.138800
     23 N2         -12.6360     1.8590    -0.3370 n3         1 1V2      -0.518600
     24 C22        -12.8670     2.2660     1.0550 c3         1 1V2       0.146800
     25 C21        -14.3700     2.2700     1.3450 c3         1 1V2      -0.043400
     26 C20        -15.0660     3.2410     0.3880 c3         1 1V2       0.191100
     27 O2         -16.4770     3.2080     0.6160 oh         1 1V2      -0.581800
     28 C19        -14.7700     2.8250    -1.0550 c3         1 1V2      -0.045400
     29 C18        -13.2560     2.8050    -1.2750 c3         1 1V2       0.130500
     30 C23        -12.9550     2.3690    -2.7100 c3         1 1V2       0.213400
     31 O1         -13.5510     1.0940    -2.9560 oh         1 1V2      -0.572800
     32 H1          -0.5430     0.0010    -0.9380 ha         1 1V2       0.137000
     33 H2           1.9380    -0.0020     3.3360 ha         1 1V2       0.117000
     34 H3          -0.5260    -0.0030     3.3540 ha         1 1V2       0.112000
     35 H4          -2.4860    -0.0020     3.3580 h4         1 1V2       0.166000
     36 H5          -4.7700    -0.0780    -1.7680 hn         1 1V2       0.294800
     37 H6          -6.1680     1.5290     1.0410 ha         1 1V2       0.123500
     38 H7          -8.5790     1.7740     1.4970 ha         1 1V2       0.110000
     39 H8          -7.0580    -1.2260    -2.1160 ha         1 1V2       0.123500
     40 H9          -9.4650    -0.9740    -1.6510 ha         1 1V2       0.110000
     41 H10        -11.1500    -0.3550    -0.0160 hc         1 1V2       0.030200
     42 H11        -10.7820     0.7860     1.2850 hc         1 1V2       0.030200
     43 H12        -10.6890     2.6310    -0.3600 h1         1 1V2       0.016200
     44 H13        -11.0550     1.4910    -1.6610 h1         1 1V2       0.016200
     45 H15        -12.4680     3.2610     1.2100 h1         1 1V2       0.010700
     46 H16        -12.3740     1.5660     1.7200 h1         1 1V2       0.010700
     47 H17        -14.7680     1.2730     1.1990 hc         1 1V2       0.029700
     48 H18        -14.5390     2.5870     2.3670 hc         1 1V2       0.029700
     49 H19        -14.6910     4.2440     0.5570 h1         1 1V2      -0.009300
     50 H20        -16.7810     4.0730     0.8350 ho         1 1V2       0.385000
     51 H21        -15.2240     3.5350    -1.7350 hc         1 1V2       0.037200
     52 H22        -15.1740     1.8360    -1.2340 hc         1 1V2       0.037200
     53 H23        -12.8550     3.7960    -1.1020 h1         1 1V2       0.007700
     54 H24        -13.3630     3.0980    -3.4010 h1         1 1V2      -0.008300
     55 H25        -11.8830     2.3000    -2.8500 h1         1 1V2      -0.008300
     56 H26        -13.5560     0.9230    -3.8830 ho         1 1V2       0.383000
@<TRIPOS>BOND
     1     1     2 ar  
     2     1     8 ar  
     3     1    32 1   
     4     2     3 1   
     5     2     4 ar  
     6     4     5 1   
     7     4     6 ar  
     8     6     7 ar  
     9     6    33 1   
    10     7     8 ar  
    11     7    34 1   
    12     8     9 1   
    13     9    10 1   
    14     9    11 2   
    15    10    13 2   
    16    11    12 1   
    17    11    35 1   
    18    12    13 1   
    19    13    14 1   
    20    14    15 1   
    21    14    36 1   
    22    15    16 ar  
    23    15    18 ar  
    24    16    17 ar  
    25    16    37 1   
    26    17    20 ar  
    27    17    38 1   
    28    18    19 ar  
    29    18    39 1   
    30    19    20 ar  
    31    19    40 1   
    32    20    21 1   
    33    21    22 1   
    34    21    41 1   
    35    21    42 1   
    36    22    23 1   
    37    22    43 1   
    38    22    44 1   
    39    23    24 1   
    40    23    29 1   
    41    24    25 1   
    42    24    45 1   
    43    24    46 1   
    44    25    26 1   
    45    25    47 1   
    46    25    48 1   
    47    26    27 1   
    48    26    28 1   
    49    26    49 1   
    50    27    50 1   
    51    28    29 1   
    52    28    51 1   
    53    28    52 1   
    54    29    30 1   
    55    29    53 1   
    56    30    31 1   
    57    30    54 1   
    58    30    55 1   
    59    31    56 1   
@<TRIPOS>SUBSTRUCTURE
     1 1V2         1 TEMP              0 ****  ****    0 ROOT
