@<TRIPOS>MOLECULE
molecule
   27    29     1     0     0
SMALL
bcc


@<TRIPOS>ATOM
      1 CAB          0.0000     0.0000     0.0000 cc         1 1V3      -0.342200
      2 CAD          1.4140     0.0000     0.0000 c          1 1V3       0.586900
      3 OAI          2.0490     0.0010    -1.0420 o          1 1V3      -0.543100
      4 CAC          2.0930     0.0000     1.3120 ca         1 1V3      -0.220600
      5 CAG          3.4820    -0.0000     1.4090 ca         1 1V3      -0.034000
      6 CAK          4.0770     0.0010     2.6540 ca         1 1V3      -0.010600
      7 Cl1          5.8090     0.0020     2.7840 cl         1 1V3      -0.097400
      8 CAL          3.2980     0.0000     3.8020 ca         1 1V3      -0.071000
      9 CAJ          1.9210    -0.0010     3.7170 ca         1 1V3      -0.148000
     10 CAF          1.3030    -0.0010     2.4730 ca         1 1V3       0.157100
     11 OAE         -0.0430    -0.0020     2.3690 os         1 1V3      -0.213200
     12 CAA         -0.6710     0.0050     1.1830 cd         1 1V3       0.212900
     13 CAH         -2.1470     0.0030     1.1640 ca         1 1V3      -0.074800
     14 CAN         -2.8660    -0.0050     2.3610 ca         1 1V3      -0.091500
     15 CAP         -4.2450    -0.0060     2.3340 ca         1 1V3      -0.132500
     16 CAR         -4.9170     0.0010     1.1250 ca         1 1V3      -0.105000
     17 CAQ         -4.2110     0.0100    -0.0660 ca         1 1V3      -0.132500
     18 CAO         -2.8320     0.0160    -0.0540 ca         1 1V3      -0.091500
     19 H1          -0.5450     0.0060    -0.9360 ha         1 1V3       0.172000
     20 H2           4.0880    -0.1260     0.5200 ha         1 1V3       0.173000
     21 H3           3.7750     0.0010     4.7740 ha         1 1V3       0.153000
     22 H4           1.3220    -0.0010     4.6200 ha         1 1V3       0.153000
     23 H5          -2.3410    -0.0100     3.3080 ha         1 1V3       0.145000
     24 H6          -4.8040    -0.0120     3.2630 ha         1 1V3       0.138000
     25 H7          -6.0000    -0.0010     1.1090 ha         1 1V3       0.135000
     26 H8          -4.7430     0.0180    -1.0090 ha         1 1V3       0.138000
     27 H9          -2.2810     0.0230    -0.9860 ha         1 1V3       0.145000
@<TRIPOS>BOND
     1    16    17 ar  
     2    16    15 ar  
     3    17    18 ar  
     4    15    14 ar  
     5    18    13 ar  
     6    14    13 ar  
     7    13    12 1   
     8    12    11 1   
     9    12     1 2   
    10    11    10 1   
    11     1     2 1   
    12    10     9 ar  
    13    10     4 ar  
    14     9     8 ar  
    15     2     4 1   
    16     2     3 2   
    17     4     5 ar  
    18     8     6 ar  
    19     5     6 ar  
    20     6     7 1   
    21     1    19 1   
    22     5    20 1   
    23     8    21 1   
    24     9    22 1   
    25    14    23 1   
    26    15    24 1   
    27    16    25 1   
    28    17    26 1   
    29    18    27 1   
@<TRIPOS>SUBSTRUCTURE
     1 1V3         1 TEMP              0 ****  ****    0 ROOT
