@<TRIPOS>MOLECULE
1V3
   27    29     1     0     0
SMALL
bcc


@<TRIPOS>ATOM
      1 CAB         -0.1130     0.2800     0.0720 cc         1 1V3      -0.318200
      2 CAD          1.3410     0.4030    -0.0080 c          1 1V3       0.590900
      3 OAI          1.9390     0.6550    -1.0630 o          1 1V3      -0.539100
      4 CAC          2.0290     0.2020     1.2780 ca         1 1V3      -0.207600
      5 CAG          3.4250     0.2910     1.3770 ca         1 1V3      -0.042000
      6 CAK          4.0450     0.0960     2.6090 ca         1 1V3      -0.021600
      7 Cl1          5.7360     0.2040     2.7300 cl         1 1V3      -0.081400
      8 CAL          3.2890    -0.1920     3.7570 ca         1 1V3      -0.074000
      9 CAJ          1.9080    -0.2840     3.6770 ca         1 1V3      -0.151000
     10 CAF          1.2830    -0.0850     2.4310 ca         1 1V3       0.143100
     11 OAE         -0.0970    -0.1960     2.4390 os         1 1V3      -0.222200
     12 CAA         -0.7530    -0.0060     1.2290 cd         1 1V3       0.198900
     13 CAH         -2.2020    -0.1450     1.3830 ca         1 1V3      -0.080800
     14 CAN         -2.9790    -0.5830     0.3000 ca         1 1V3      -0.091500
     15 CAP         -4.3600    -0.6990     0.4370 ca         1 1V3      -0.136000
     16 CAR         -4.9750    -0.3850     1.6490 ca         1 1V3      -0.106000
     17 CAQ         -4.2050     0.0440     2.7300 ca         1 1V3      -0.136000
     18 CAO         -2.8230     0.1630     2.6020 ca         1 1V3      -0.091500
     19 H1          -0.6730     0.4400    -0.8610 ha         1 1V3       0.171000
     20 H2           4.0080     0.5170     0.4670 ha         1 1V3       0.176000
     21 H3           3.7930    -0.3460     4.7250 ha         1 1V3       0.155000
     22 H4           1.2970    -0.5100     4.5630 ha         1 1V3       0.159000
     23 H5          -2.4970    -0.8410    -0.6560 ha         1 1V3       0.145500
     24 H6          -4.9660    -1.0420    -0.4160 ha         1 1V3       0.139500
     25 H7          -6.0670    -0.4770     1.7520 ha         1 1V3       0.137000
     26 H8          -4.6880     0.2900     3.6880 ha         1 1V3       0.139500
     27 H9          -2.2110     0.4970     3.4540 ha         1 1V3       0.145500
@<TRIPOS>BOND
     1     1     2 1   
     2     1    12 2   
     3     1    19 1   
     4     2     3 2   
     5     2     4 1   
     6     4     5 ar  
     7     4    10 ar  
     8     5     6 ar  
     9     5    20 1   
    10     6     7 1   
    11     6     8 ar  
    12     8     9 ar  
    13     8    21 1   
    14     9    10 ar  
    15     9    22 1   
    16    10    11 1   
    17    11    12 1   
    18    12    13 1   
    19    13    14 ar  
    20    13    18 ar  
    21    14    15 ar  
    22    14    23 1   
    23    15    16 ar  
    24    15    24 1   
    25    16    17 ar  
    26    16    25 1   
    27    17    18 ar  
    28    17    26 1   
    29    18    27 1   
@<TRIPOS>SUBSTRUCTURE
     1 1V3         1 TEMP              0 ****  ****    0 ROOT
