@<TRIPOS>MOLECULE
1V3
   27    29     1     0     0
SMALL
bcc


@<TRIPOS>ATOM
      1 CAB         0.0600   -0.2800   -0.0730 cc        1 1V3     -0.318200
      2 CAD         1.5210   -0.3090   -0.0680 c         1 1V3      0.590900
      3 OAI         2.1950   -0.4910   -1.0910 o         1 1V3     -0.539100
      4 CAC         2.1190   -0.1030    1.2620 ca        1 1V3     -0.207600
      5 CAG         3.5090   -0.1070    1.4430 ca        1 1V3     -0.042000
      6 CAK         4.0420    0.0900    2.7150 ca        1 1V3     -0.021600
      7 Cl1         5.7260    0.0850    2.9350 cl        1 1V3     -0.081400
      8 CAL         3.2030    0.2950    3.8220 ca        1 1V3     -0.074000
      9 CAJ         1.8250    0.3020    3.6610 ca        1 1V3     -0.151000
     10 CAF         1.2890    0.1010    2.3750 ca        1 1V3      0.143100
     11 OAE        -0.0940    0.1240    2.3020 os        1 1V3     -0.222200
     12 CAA        -0.6640   -0.0710    1.0510 cd        1 1V3      0.198900
     13 CAH        -2.1250   -0.0280    1.1200 ca        1 1V3     -0.080800
     14 CAN        -2.7950   -0.4100    2.2910 ca        1 1V3     -0.091500
     15 CAP        -4.1870   -0.3840    2.3380 ca        1 1V3     -0.136000
     16 CAR        -4.9190    0.0270    1.2240 ca        1 1V3     -0.106000
     17 CAQ        -4.2560    0.4150    0.0600 ca        1 1V3     -0.136000
     18 CAO        -2.8640    0.3910    0.0040 ca        1 1V3     -0.091500
     19 H1         -0.4330   -0.4480   -1.0420 ha        1 1V3      0.171000
     20 H2          4.1570   -0.2690    0.5640 ha        1 1V3      0.176000
     21 H3          3.6380    0.4510    4.8220 ha        1 1V3      0.155000
     22 H4          1.1510    0.4620    4.5140 ha        1 1V3      0.159000
     23 H5         -2.2140   -0.7300    3.1700 ha        1 1V3      0.145500
     24 H6         -4.7080   -0.6880    3.2580 ha        1 1V3      0.139500
     25 H7         -6.0180    0.0470    1.2640 ha        1 1V3      0.137000
     26 H8         -4.8310    0.7440   -0.8190 ha        1 1V3      0.139500
     27 H9         -2.3450    0.7070   -0.9150 ha        1 1V3      0.145500
@<TRIPOS>BOND
     1    1    2 1   
     2    1   12 2   
     3    1   19 1   
     4    2    3 2   
     5    2    4 1   
     6    4    5 ar  
     7    4   10 ar  
     8    5    6 ar  
     9    5   20 1   
    10    6    7 1   
    11    6    8 ar  
    12    8    9 ar  
    13    8   21 1   
    14    9   10 ar  
    15    9   22 1   
    16   10   11 1   
    17   11   12 1   
    18   12   13 1   
    19   13   14 ar  
    20   13   18 ar  
    21   14   15 ar  
    22   14   23 1   
    23   15   16 ar  
    24   15   24 1   
    25   16   17 ar  
    26   16   25 1   
    27   17   18 ar  
    28   17   26 1   
    29   18   27 1   
@<TRIPOS>SUBSTRUCTURE
     1 1V3         1 TEMP              0 ****  ****    0 ROOT
