@<TRIPOS>MOLECULE
1V4
   27    29     1     0     0
SMALL
bcc


@<TRIPOS>ATOM
      1 CAB         -0.0430    -0.1650     0.0340 cc         1 1V4      -0.320200
      2 CAD          1.4150    -0.1690    -0.0470 c          1 1V4       0.589900
      3 OAI          2.0310    -0.2870    -1.1150 o          1 1V4      -0.538100
      4 CAC          2.0870    -0.0210     1.2560 ca         1 1V4      -0.190600
      5 CAG          3.4840    -0.0110     1.3520 ca         1 1V4      -0.085000
      6 CAK          4.0930     0.1320     2.6060 ca         1 1V4       0.091900
      7 F1           5.4440     0.1420     2.7060 f          1 1V4      -0.134900
      8 CAL          3.3090     0.2660     3.7740 ca         1 1V4      -0.115000
      9 CAJ          1.9270     0.2570     3.6860 ca         1 1V4      -0.134000
     10 CAF          1.3210     0.1130     2.4230 ca         1 1V4       0.128100
     11 OAE         -0.0640     0.1160     2.4320 os         1 1V4      -0.222200
     12 CAA         -0.7030    -0.0250     1.2070 cd         1 1V4       0.200900
     13 CAH         -2.1590    -0.0100     1.3610 ca         1 1V4      -0.080800
     14 CAN         -2.7540    -0.4650     2.5470 ca         1 1V4      -0.091500
     15 CAP         -4.1410    -0.4640     2.6750 ca         1 1V4      -0.136000
     16 CAR         -4.9420    -0.0080     1.6280 ca         1 1V4      -0.106000
     17 CAQ         -4.3530     0.4510     0.4500 ca         1 1V4      -0.136000
     18 CAO         -2.9660     0.4540     0.3130 ca         1 1V4      -0.091500
     19 H1          -0.5900    -0.2910    -0.9120 ha         1 1V4       0.171000
     20 H2           4.0900    -0.1160     0.4370 ha         1 1V4       0.177000
     21 H3           3.8070     0.3780     4.7490 ha         1 1V4       0.157000
     22 H4           1.2980     0.3620     4.5820 ha         1 1V4       0.160000
     23 H5          -2.1190    -0.8200     3.3730 ha         1 1V4       0.145500
     24 H6          -4.6040    -0.8240     3.6060 ha         1 1V4       0.139500
     25 H7          -6.0370    -0.0090     1.7310 ha         1 1V4       0.137000
     26 H8          -4.9830     0.8150    -0.3760 ha         1 1V4       0.139500
     27 H9          -2.5060     0.8260    -0.6160 ha         1 1V4       0.145500
@<TRIPOS>BOND
     1     1     2 1   
     2     1    12 2   
     3     1    19 1   
     4     2     3 2   
     5     2     4 1   
     6     4     5 ar  
     7     4    10 ar  
     8     5     6 ar  
     9     5    20 1   
    10     6     7 1   
    11     6     8 ar  
    12     8     9 ar  
    13     8    21 1   
    14     9    10 ar  
    15     9    22 1   
    16    10    11 1   
    17    11    12 1   
    18    12    13 1   
    19    13    14 ar  
    20    13    18 ar  
    21    14    15 ar  
    22    14    23 1   
    23    15    16 ar  
    24    15    24 1   
    25    16    17 ar  
    26    16    25 1   
    27    17    18 ar  
    28    17    26 1   
    29    18    27 1   
@<TRIPOS>SUBSTRUCTURE
     1 1V4         1 TEMP              0 ****  ****    0 ROOT
