@<TRIPOS>MOLECULE
molecule
   27    29     1     0     0
SMALL
bcc


@<TRIPOS>ATOM
      1 CAB          0.0000     0.0000     0.0000 cc         1 1V4      -0.344200
      2 CAD          1.4150     0.0000     0.0000 c          1 1V4       0.586900
      3 OAI          2.0490     0.0020    -1.0410 o          1 1V4      -0.542100
      4 CAC          2.0920     0.0000     1.3120 ca         1 1V4      -0.204600
      5 CAG          3.4820     0.0010     1.4100 ca         1 1V4      -0.081000
      6 CAK          4.0770     0.0010     2.6550 ca         1 1V4       0.098900
      7 F1           5.4250     0.0020     2.7570 f          1 1V4      -0.134900
      8 CAL          3.2960     0.0000     3.8030 ca         1 1V4      -0.116000
      9 CAJ          1.9200     0.0000     3.7170 ca         1 1V4      -0.131000
     10 CAF          1.3020     0.0000     2.4730 ca         1 1V4       0.143100
     11 OAE         -0.0430    -0.0020     2.3690 os         1 1V4      -0.213200
     12 CAA         -0.6710     0.0050     1.1830 cd         1 1V4       0.213900
     13 CAH         -2.1480     0.0030     1.1620 ca         1 1V4      -0.073800
     14 CAN         -2.8660    -0.0050     2.3590 ca         1 1V4      -0.092000
     15 CAP         -4.2450    -0.0060     2.3320 ca         1 1V4      -0.132500
     16 CAR         -4.9160     0.0010     1.1220 ca         1 1V4      -0.105000
     17 CAQ         -4.2110     0.0090    -0.0680 ca         1 1V4      -0.132500
     18 CAO         -2.8320     0.0160    -0.0560 ca         1 1V4      -0.092000
     19 H1          -0.5450     0.0060    -0.9360 ha         1 1V4       0.172000
     20 H2           4.0880    -0.1250     0.5200 ha         1 1V4       0.174000
     21 H3           3.7720     0.0000     4.7760 ha         1 1V4       0.154000
     22 H4           1.3220    -0.0000     4.6200 ha         1 1V4       0.153000
     23 H5          -2.3410    -0.0100     3.3070 ha         1 1V4       0.145000
     24 H6          -4.8040    -0.0120     3.2600 ha         1 1V4       0.138000
     25 H7          -6.0000    -0.0020     1.1060 ha         1 1V4       0.135000
     26 H8          -4.7430     0.0170    -1.0120 ha         1 1V4       0.138000
     27 H9          -2.2800     0.0220    -0.9890 ha         1 1V4       0.145000
@<TRIPOS>BOND
     1    16    15 ar
     2    16    17 ar
     3    15    14 ar
     4    17    18 ar
     5    14    13 ar
     6    18    13 ar
     7    13    12 1
     8    12    11 1
     9    12     1 2
    10    11    10 1
    11     1     2 1
    12    10     9 ar
    13    10     4 ar
    14     9     8 ar
    15     2     4 1
    16     2     3 2
    17     4     5 ar
    18     8     6 ar
    19     5     6 ar
    20     6     7 1
    21     1    19 1
    22     5    20 1
    23     8    21 1
    24     9    22 1
    25    14    23 1
    26    15    24 1
    27    16    25 1
    28    17    26 1
    29    18    27 1
@<TRIPOS>SUBSTRUCTURE
     1 1V4         1 TEMP              0 ****  ****    0 ROOT
