@<TRIPOS>MOLECULE
1V5
   60    65     1     0     0
SMALL
bcc


@<TRIPOS>ATOM
      1 F60          0.0000     0.0000     0.0000 f          1 1V5      -0.130900
      2 C53          1.3520     0.0000     0.0000 ca         1 1V5       0.101900
      3 C52          2.0430     0.0000     1.1990 ca         1 1V5      -0.125500
      4 C51          3.4250    -0.0010     1.1990 ca         1 1V5      -0.069500
      5 C54          2.0450    -0.0070    -1.1980 ca         1 1V5      -0.125500
      6 C55          3.4270    -0.0080    -1.1960 ca         1 1V5      -0.069500
      7 C50          4.1170    -0.0020     0.0010 ca         1 1V5      -0.054300
      8 C16          5.6240    -0.0020     0.0020 cx         1 1V5      -0.008300
      9 C47          6.3310     0.3020    -1.3200 cx         1 1V5      -0.070400
     10 C31          6.3300    -1.1240    -0.7630 cx         1 1V5      -0.070400
     11 N48          6.2550     0.4790     1.2340 ns         1 1V5      -0.152900
     12 C27          6.1110     1.7660     1.6070 c          1 1V5       0.597700
     13 O30          5.3830     2.5050     0.9720 o          1 1V5      -0.637100
     14 C39          6.8350     2.2780     2.7850 ca         1 1V5      -0.187600
     15 C45          7.6790     1.4270     3.5120 ca         1 1V5      -0.061000
     16 C37          8.3520     1.8900     4.6010 ca         1 1V5      -0.171300
     17 C40          6.6850     3.6100     3.1720 ca         1 1V5       0.001000
     18 C32          7.3670     4.0870     4.2780 ca         1 1V5      -0.358600
     19 N41          7.2260     5.4100     4.6720 na         1 1V5       0.633700
     20 C44          7.9130     5.8560     5.7710 cc         1 1V5      -0.409600
     21 N28          7.6210     7.1300     5.9460 nd         1 1V5      -0.212600
     22 C46          6.7700     7.5200     4.9960 cd         1 1V5       0.018600
     23 C18          6.5110     6.4610     4.1910 cc         1 1V5      -0.393100
     24 C43          8.7760     4.9190     6.4960 cc         1 1V5       0.605200
     25 N42          8.8810     3.6730     6.0880 nd         1 1V5      -0.739000
     26 C33          8.2080     3.2260     5.0080 ca         1 1V5       0.473600
     27 N34          9.4780     5.3430     7.6050 nu         1 1V5      -0.436900
     28 C26         10.3410     4.4050     8.3290 c3         1 1V5       0.118500
     29 C35         10.4960     4.8710     9.7780 c3         1 1V5      -0.034900
     30 C19         11.3970     3.8920    10.5340 c3         1 1V5      -0.037900
     31 C21         11.7160     4.3560     7.6590 c3         1 1V5      -0.034900
     32 C36         12.6170     3.3770     8.4150 c3         1 1V5      -0.037900
     33 C20         12.7720     3.8420     9.8650 c3         1 1V5       0.189100
     34 O17         13.6130     2.9280    10.5700 oh         1 1V5      -0.583800
     35 H57          1.5020     0.0000     2.1380 ha         1 1V5       0.118000
     36 H56          3.9670     0.0010     2.1370 ha         1 1V5       0.111000
     37 H58          1.5040    -0.0120    -2.1370 ha         1 1V5       0.118000
     38 H59          3.9690    -0.0110    -2.1340 ha         1 1V5       0.111000
     39 H12          7.2700     0.8360    -1.2370 hc         1 1V5       0.053950
     40 H15          5.6800     0.4720    -2.1700 hc         1 1V5       0.053950
     41 H9           5.6790    -1.8240    -1.2720 hc         1 1V5       0.053950
     42 H1           7.2690    -1.4600    -0.3400 hc         1 1V5       0.053950
     43 H49          6.7690    -0.1550     1.8130 hn         1 1V5       0.177500
     44 H38          7.7970     0.3950     3.2060 ha         1 1V5       0.101000
     45 H23          9.0020     1.2240     5.1570 ha         1 1V5       0.124000
     46 H24          6.0990     4.2880     2.5630 ha         1 1V5       0.134000
     47 H25          6.3570     8.5150     4.8860 h4         1 1V5       0.144000
     48 H22          5.8570     6.4540     3.3270 h4         1 1V5       0.166000
     49 H14          9.3790     6.2850     7.9300 hn         1 1V5       0.309800
     50 H10          9.8990     3.4160     8.3150 h1         1 1V5       0.065700
     51 H8           9.5230     4.9030    10.2520 hc         1 1V5       0.022450
     52 H13         10.9440     5.8570     9.7930 hc         1 1V5       0.022450
     53 H29         10.9520     2.9050    10.5150 hc         1 1V5       0.026200
     54 H7          11.5080     4.2230    11.5600 hc         1 1V5       0.026200
     55 H2          11.6050     4.0250     6.6340 hc         1 1V5       0.022450
     56 H5          12.1610     5.3440     7.6790 hc         1 1V5       0.022450
     57 H3          13.5910     3.3450     7.9410 hc         1 1V5       0.026200
     58 H6          12.1690     2.3910     8.3990 hc         1 1V5       0.026200
     59 H4          13.2140     4.8310     9.8790 h1         1 1V5      -0.001300
     60 H11         14.3710     3.3850    10.8960 ho         1 1V5       0.388000
@<TRIPOS>BOND
     1     1     2 1   
     2     2     3 ar  
     3     2     5 ar  
     4     3     4 ar  
     5     3    35 1   
     6     4     7 ar  
     7     4    36 1   
     8     5     6 ar  
     9     5    37 1   
    10     6     7 ar  
    11     6    38 1   
    12     7     8 1   
    13     8     9 1   
    14     8    10 1   
    15     8    11 1   
    16     9    10 1   
    17     9    39 1   
    18     9    40 1   
    19    10    41 1   
    20    10    42 1   
    21    11    12 1   
    22    11    43 1   
    23    12    13 2   
    24    12    14 1   
    25    14    15 ar  
    26    14    17 ar  
    27    15    16 ar  
    28    15    44 1   
    29    16    26 ar  
    30    16    45 1   
    31    17    18 ar  
    32    17    46 1   
    33    18    19 1   
    34    18    26 ar  
    35    19    20 1   
    36    19    23 1   
    37    20    21 2   
    38    20    24 1   
    39    21    22 1   
    40    22    23 2   
    41    22    47 1   
    42    23    48 1   
    43    24    25 2   
    44    24    27 1   
    45    25    26 1   
    46    27    28 1   
    47    27    49 1   
    48    28    29 1   
    49    28    31 1   
    50    28    50 1   
    51    29    30 1   
    52    29    51 1   
    53    29    52 1   
    54    30    33 1   
    55    30    53 1   
    56    30    54 1   
    57    31    32 1   
    58    31    55 1   
    59    31    56 1   
    60    32    33 1   
    61    32    57 1   
    62    32    58 1   
    63    33    34 1   
    64    33    59 1   
    65    34    60 1   
@<TRIPOS>SUBSTRUCTURE
     1 1V5         1 TEMP              0 ****  ****    0 ROOT
