@<TRIPOS>MOLECULE
1V5
   61    66     1     0     0
SMALL
bcc


@<TRIPOS>ATOM
      1 F60          0.1080    -0.8420     0.3940 f          1 1V5      -0.110900
      2 C53          1.4420    -0.6550     0.3220 ca         1 1V5       0.177900
      3 C52          2.2900    -1.7450     0.0390 ca         1 1V5      -0.165500
      4 C51          3.6630    -1.5430    -0.0310 ca         1 1V5      -0.074000
      5 C54          1.9820     0.6310     0.5290 ca         1 1V5      -0.165500
      6 C55          3.3570     0.8160     0.4530 ca         1 1V5      -0.074000
      7 C50          4.2020    -0.2670     0.1750 ca         1 1V5      -0.160300
      8 C16          5.6640    -0.0560     0.0710 cx         1 1V5       0.085500
      9 C47          6.1990     0.9750    -0.9160 cx         1 1V5      -0.089900
     10 C31          6.3910    -0.4800    -1.1970 cx         1 1V5      -0.089900
     11 N48          6.3450    -0.1850     1.3880 ny         1 1V5      -0.637800
     12 C27          6.6850    -1.6080     1.8130 c          1 1V5       0.579700
     13 O30          6.6220    -2.4670     0.9390 o          1 1V5      -0.457100
     14 C39          7.0490    -1.7800     3.2080 ca         1 1V5      -0.260600
     15 C45          7.2590    -0.7170     4.1150 ca         1 1V5      -0.081000
     16 C37          7.6030    -0.9570     5.4220 ca         1 1V5      -0.191300
     17 C40          7.2070    -3.1040     3.6500 ca         1 1V5      -0.003000
     18 C32          7.5540    -3.3690     4.9770 ca         1 1V5      -0.156600
     19 N41          7.7210    -4.6700     5.4660 na         1 1V5       0.023700
     20 C44          8.0700    -4.8930     6.8290 cc         1 1V5      -0.214600
     21 N28          8.1850    -6.2250     7.0850 nd         1 1V5      -0.229600
     22 C46          7.9110    -6.8620     5.8900 cd         1 1V5       0.002600
     23 C18          7.6200    -5.9190     4.8700 cc         1 1V5      -0.164100
     24 C43          8.2500    -3.7260     7.7200 cc         1 1V5       0.804200
     25 N42          8.1000    -2.4640     7.2330 nd         1 1V5      -0.793000
     26 C33          7.7630    -2.2900     5.9230 ca         1 1V5       0.533600
     27 N34          8.5440    -3.9750     9.0220 nu         1 1V5      -0.803900
     28 C26          8.7890    -2.9410    10.0180 c3         1 1V5       0.213500
     29 C35         10.2140    -2.3670     9.9400 c3         1 1V5      -0.090400
     30 C19         10.3800    -1.2500    10.9440 c3         1 1V5      -0.095400
     31 C21          8.5410    -3.4840    11.4370 c3         1 1V5      -0.090400
     32 C36          8.7030    -2.3720    12.4480 c3         1 1V5      -0.095400
     33 C20         10.0900    -1.7400    12.3600 c3         1 1V5       0.140100
     34 O17         10.1760    -0.5980    13.2010 oh         1 1V5      -0.592800
     35 H57          1.8570    -2.7440    -0.1270 ha         1 1V5       0.171500
     36 H56          4.3340    -2.3890    -0.2550 ha         1 1V5       0.150000
     37 H58          1.3090     1.4770     0.7420 ha         1 1V5       0.171500
     38 H59          3.7770     1.8230     0.5960 ha         1 1V5       0.150000
     39 H12          7.0760     1.5950    -0.6510 hc         1 1V5       0.107450
     40 H15          5.4500     1.5510    -1.4950 hc         1 1V5       0.107450
     41 H9           7.4020    -0.9230    -1.1230 hc         1 1V5       0.107450
     42 H1           5.7850    -0.9750    -1.9800 hc         1 1V5       0.107450
     43 H49          5.7250     0.2180     2.1020 hn         1 1V5       0.454300
     44 H38          7.1670     0.3330     3.7980 ha         1 1V5       0.120000
     45 H23          7.7650    -0.1140     6.1160 ha         1 1V5       0.177000
     46 H24          7.0510    -3.9320     2.9340 ha         1 1V5       0.166000
     47 H25          7.9310    -7.9510     5.8030 h4         1 1V5       0.204000
     48 H22          7.3660    -6.0620     3.8220 h4         1 1V5       0.194000
     49 H14          8.6950    -4.9230     9.3000 hn         1 1V5       0.473800
     50 H10          8.0580    -2.0960     9.8330 h1         1 1V5       0.089700
     51 H8          10.4100    -1.9690     8.9110 hc         1 1V5       0.055950
     52 H13         10.9630    -3.1770    10.1440 hc         1 1V5       0.055950
     53 H29         11.4270    -0.8530    10.9020 hc         1 1V5       0.062200
     54 H7           9.6890    -0.4000    10.7030 hc         1 1V5       0.062200
     55 H2           7.5050    -3.9060    11.5140 hc         1 1V5       0.055950
     56 H5           9.2660    -4.3090    11.6630 hc         1 1V5       0.055950
     57 H3           8.5440    -2.7830    13.4790 hc         1 1V5       0.062200
     58 H6           7.9290    -1.5780    12.2800 hc         1 1V5       0.062200
     59 H4          10.8680    -2.4950    12.6700 h1         1 1V5       0.038700
     60 H11         10.0230    -0.9030    14.1030 ho         1 1V5       0.406000
     61 H482         7.2190     0.3510     1.3680 hn         1 1V5       0.454300
@<TRIPOS>BOND
     1     1     2 1   
     2     2     3 ar  
     3     2     5 ar  
     4     3     4 ar  
     5     3    35 1   
     6     4     7 ar  
     7     4    36 1   
     8     5     6 ar  
     9     5    37 1   
    10     6     7 ar  
    11     6    38 1   
    12     7     8 1   
    13     8     9 1   
    14     8    10 1   
    15     8    11 1   
    16     9    10 1   
    17     9    39 1   
    18     9    40 1   
    19    10    41 1   
    20    10    42 1   
    21    11    12 1   
    22    11    43 1   
    23    11    61 1   
    24    12    13 2   
    25    12    14 1   
    26    14    15 ar  
    27    14    17 ar  
    28    15    16 ar  
    29    15    44 1   
    30    16    26 ar  
    31    16    45 1   
    32    17    18 ar  
    33    17    46 1   
    34    18    19 1   
    35    18    26 ar  
    36    19    20 1   
    37    19    23 1   
    38    20    21 2   
    39    20    24 1   
    40    21    22 1   
    41    22    23 2   
    42    22    47 1   
    43    23    48 1   
    44    24    25 2   
    45    24    27 1   
    46    25    26 1   
    47    27    28 1   
    48    27    49 1   
    49    28    29 1   
    50    28    31 1   
    51    28    50 1   
    52    29    30 1   
    53    29    51 1   
    54    29    52 1   
    55    30    33 1   
    56    30    53 1   
    57    30    54 1   
    58    31    32 1   
    59    31    55 1   
    60    31    56 1   
    61    32    33 1   
    62    32    57 1   
    63    32    58 1   
    64    33    34 1   
    65    33    59 1   
    66    34    60 1   
@<TRIPOS>SUBSTRUCTURE
     1 1V5         1 TEMP              0 ****  ****    0 ROOT
