@<TRIPOS>MOLECULE
molecule
   60    65     1     0     0
SMALL
bcc


@<TRIPOS>ATOM
      1 F60          0.0000     0.0000     0.0000 f          1 1V5      -0.142900
      2 C53          1.3520     0.0000     0.0000 ca         1 1V5       0.131900
      3 C52          2.0430     0.0000     1.1990 ca         1 1V5      -0.163000
      4 C51          3.4250    -0.0010     1.1990 ca         1 1V5      -0.090500
      5 C54          2.0450    -0.0070    -1.1980 ca         1 1V5      -0.163000
      6 C55          3.4270    -0.0080    -1.1960 ca         1 1V5      -0.090500
      7 C50          4.1170    -0.0020     0.0010 ca         1 1V5      -0.057300
      8 C16          5.6240    -0.0020     0.0020 cx         1 1V5       0.102700
      9 C47          6.3310     0.3020    -1.3200 cx         1 1V5      -0.125400
     10 C31          6.3300    -1.1240    -0.7630 cx         1 1V5      -0.125400
     11 N48          6.2550     0.4790     1.2340 ns         1 1V5      -0.556900
     12 C27          6.1110     1.7660     1.6070 c          1 1V5       0.676700
     13 O30          5.3830     2.5050     0.9720 o          1 1V5      -0.592100
     14 C39          6.8350     2.2780     2.7850 ca         1 1V5      -0.165600
     15 C45          7.6790     1.4270     3.5120 ca         1 1V5      -0.097000
     16 C37          8.3520     1.8900     4.6010 ca         1 1V5      -0.184300
     17 C40          6.6850     3.6100     3.1720 ca         1 1V5      -0.051000
     18 C32          7.3670     4.0870     4.2780 ca         1 1V5      -0.147600
     19 N41          7.2260     5.4100     4.6720 na         1 1V5       0.052700
     20 C44          7.9130     5.8560     5.7710 cc         1 1V5      -0.186600
     21 N28          7.6210     7.1300     5.9460 nd         1 1V5      -0.287600
     22 C46          6.7700     7.5200     4.9960 cd         1 1V5       0.003600
     23 C18          6.5110     6.4610     4.1910 cc         1 1V5      -0.193100
     24 C43          8.7760     4.9190     6.4960 cc         1 1V5       0.781200
     25 N42          8.8810     3.6730     6.0880 nd         1 1V5      -0.805000
     26 C33          8.2080     3.2260     5.0080 ca         1 1V5       0.479600
     27 N34          9.4780     5.3430     7.6050 nu         1 1V5      -0.874900
     28 C26         10.3410     4.4050     8.3290 c3         1 1V5       0.240500
     29 C35         10.4960     4.8710     9.7780 c3         1 1V5      -0.095400
     30 C19         11.3970     3.8920    10.5340 c3         1 1V5      -0.087900
     31 C21         11.7160     4.3560     7.6590 c3         1 1V5      -0.095400
     32 C36         12.6170     3.3770     8.4150 c3         1 1V5      -0.087900
     33 C20         12.7720     3.8420     9.8650 c3         1 1V5       0.144100
     34 O17         13.6130     2.9280    10.5700 oh         1 1V5      -0.604800
     35 H57          1.5020     0.0000     2.1380 ha         1 1V5       0.145000
     36 H56          3.9670     0.0010     2.1370 ha         1 1V5       0.137500
     37 H58          1.5040    -0.0120    -2.1370 ha         1 1V5       0.145000
     38 H59          3.9690    -0.0110    -2.1340 ha         1 1V5       0.137500
     39 H12          7.2700     0.8360    -1.2370 hc         1 1V5       0.083700
     40 H15          5.6800     0.4720    -2.1700 hc         1 1V5       0.083700
     41 H9           5.6790    -1.8240    -1.2720 hc         1 1V5       0.083700
     42 H1           7.2690    -1.4600    -0.3400 hc         1 1V5       0.083700
     43 H49          6.7690    -0.1550     1.8130 hn         1 1V5       0.319500
     44 H38          7.7970     0.3950     3.2060 ha         1 1V5       0.128000
     45 H23          9.0020     1.2240     5.1570 ha         1 1V5       0.155000
     46 H24          6.0990     4.2880     2.5630 ha         1 1V5       0.163000
     47 H25          6.3570     8.5150     4.8860 h4         1 1V5       0.188000
     48 H22          5.8570     6.4540     3.3270 h4         1 1V5       0.188000
     49 H14          9.3790     6.2850     7.9300 hn         1 1V5       0.465800
     50 H10          9.8990     3.4160     8.3150 h1         1 1V5       0.086700
     51 H8           9.5230     4.9030    10.2520 hc         1 1V5       0.051700
     52 H13         10.9440     5.8570     9.7930 hc         1 1V5       0.051700
     53 H29         10.9520     2.9050    10.5150 hc         1 1V5       0.056200
     54 H7          11.5080     4.2230    11.5600 hc         1 1V5       0.056200
     55 H2          11.6050     4.0250     6.6340 hc         1 1V5       0.051700
     56 H5          12.1610     5.3440     7.6790 hc         1 1V5       0.051700
     57 H3          13.5910     3.3450     7.9410 hc         1 1V5       0.056200
     58 H6          12.1690     2.3910     8.3990 hc         1 1V5       0.056200
     59 H4          13.2140     4.8310     9.8790 h1         1 1V5       0.030700
     60 H11         14.3710     3.3850    10.8960 ho         1 1V5       0.402000
@<TRIPOS>BOND
     1     5     6 ar  
     2     5     2 ar  
     3     1     2 1   
     4     6     7 ar  
     5     2     3 ar  
     6     7     4 ar  
     7     7     8 1   
     8     3     4 ar  
     9    10     9 1   
    10    10     8 1   
    11     9     8 1   
    12     8    11 1   
    13    13    12 2   
    14    11    12 1   
    15    12    14 1   
    16    14    17 ar  
    17    14    15 ar  
    18    17    18 ar  
    19    15    16 ar  
    20    18    19 1   
    21    18    26 ar  
    22    23    19 1   
    23    23    22 2   
    24    16    26 ar  
    25    19    20 1   
    26    26    25 1   
    27    22    21 1   
    28    20    21 2   
    29    20    24 1   
    30    25    24 2   
    31    24    27 1   
    32    27    28 1   
    33    28    29 1   
    34    28    31 1   
    35    29    30 1   
    36    31    32 1   
    37    30    33 1   
    38    32    33 1   
    39    33    34 1   
    40     3    35 1   
    41     4    36 1   
    42     5    37 1   
    43     6    38 1   
    44     9    39 1   
    45     9    40 1   
    46    10    41 1   
    47    10    42 1   
    48    11    43 1   
    49    15    44 1   
    50    16    45 1   
    51    17    46 1   
    52    22    47 1   
    53    23    48 1   
    54    27    49 1   
    55    28    50 1   
    56    29    51 1   
    57    29    52 1   
    58    30    53 1   
    59    30    54 1   
    60    31    55 1   
    61    31    56 1   
    62    32    57 1   
    63    32    58 1   
    64    33    59 1   
    65    34    60 1   
@<TRIPOS>SUBSTRUCTURE
     1 1V5         1 TEMP              0 ****  ****    0 ROOT
