@<TRIPOS>MOLECULE
1V6
   33    35     1     0     0
SMALL
bcc


@<TRIPOS>ATOM
      1 CAE          0.0000     0.0000     0.0000 ca         1 1V6      -0.096500
      2 CAC          1.3820     0.0000     0.0000 ca         1 1V6      -0.098000
      3 CAB          2.0730     0.0000     1.1970 ca         1 1V6      -0.105000
      4 CAD          1.3830     0.0000     2.3950 ca         1 1V6      -0.098000
      5 CAF         -0.0010     0.0010     2.3950 ca         1 1V6      -0.096500
      6 CAO         -0.6910    -0.0010     1.1970 ca         1 1V6      -0.085300
      7 CAL         -2.1990     0.0050     1.1980 c3         1 1V6       0.087200
      8 CAP         -2.7060    -1.4140     1.1950 ca         1 1V6      -0.080300
      9 CAH         -2.9390    -2.0650     2.3920 ca         1 1V6      -0.102500
     10 CAJ         -3.4030    -3.3640     2.3940 ca         1 1V6      -0.078000
     11 CAG         -2.9440    -2.0570    -0.0070 ca         1 1V6      -0.102500
     12 CAI         -3.4100    -3.3550    -0.0160 ca         1 1V6      -0.078000
     13 CAQ         -3.6390    -4.0200     1.1880 ca         1 1V6      -0.134500
     14 CAS         -4.1390    -5.4160     1.1840 cc         1 1V6       0.448800
     15 NAM         -4.3800    -6.0840     0.0560 nc         1 1V6      -0.667000
     16 CAR         -4.8150    -7.3000     0.1780 cd         1 1V6       0.582300
     17 NAA         -5.1200    -8.1490    -0.8740 nv         1 1V6      -0.478500
     18 SAN         -4.9570    -7.7050     1.8860 ss         1 1V6      -0.371300
     19 CAK         -4.3750    -6.0990     2.3180 cd         1 1V6      -0.158400
     20 H1          -0.5420    -0.0010    -0.9380 ha         1 1V6       0.104500
     21 H2           1.9240     0.0000    -0.9380 ha         1 1V6       0.101000
     22 H3           3.1560    -0.0000     1.1970 ha         1 1V6       0.101000
     23 H4           1.9240     0.0010     3.3330 ha         1 1V6       0.101000
     24 H5          -0.5430     0.0010     3.3330 ha         1 1V6       0.104500
     25 H6          -2.5580     0.5160     2.0830 hc         1 1V6       0.021700
     26 H7          -2.5580     0.5200     0.3140 hc         1 1V6       0.021700
     27 H8          -2.7560    -1.5550     3.3300 ha         1 1V6       0.105500
     28 H9          -3.5820    -3.8740     3.3330 ha         1 1V6       0.114000
     29 H10         -2.7660    -1.5400    -0.9420 ha         1 1V6       0.105500
     30 H11         -3.5930    -3.8590    -0.9580 ha         1 1V6       0.114000
     31 H12         -5.4530    -9.0750    -0.6890 hn         1 1V6       0.273800
     32 H13         -5.0090    -7.8370    -1.8180 hn         1 1V6       0.273800
     33 H14         -4.2370    -5.7240     3.3250 h4         1 1V6       0.167000
@<TRIPOS>BOND
     1     1     2 ar  
     2     1     6 ar  
     3     1    20 1   
     4     2     3 ar  
     5     2    21 1   
     6     3     4 ar  
     7     3    22 1   
     8     4     5 ar  
     9     4    23 1   
    10     5     6 ar  
    11     5    24 1   
    12     6     7 1   
    13     7     8 1   
    14     7    25 1   
    15     7    26 1   
    16     8     9 ar  
    17     8    11 ar  
    18     9    10 ar  
    19     9    27 1   
    20    10    13 ar  
    21    10    28 1   
    22    11    12 ar  
    23    11    29 1   
    24    12    13 ar  
    25    12    30 1   
    26    13    14 1   
    27    14    15 1   
    28    14    19 2   
    29    15    16 2   
    30    16    17 1   
    31    16    18 1   
    32    17    31 1   
    33    17    32 1   
    34    18    19 1   
    35    19    33 1   
@<TRIPOS>SUBSTRUCTURE
     1 1V6         1 TEMP              0 ****  ****    0 ROOT
