@<TRIPOS>MOLECULE
1V6
   33    35     1     0     0
SMALL
bcc


@<TRIPOS>ATOM
      1 CAE         -0.0950     0.4500     0.1660 ca         1 1V6      -0.125000
      2 CAC          1.2940     0.5690     0.1940 ca         1 1V6      -0.128500
      3 CAB          2.0110     0.1510     1.3150 ca         1 1V6      -0.131000
      4 CAD          1.3340    -0.3880     2.4090 ca         1 1V6      -0.128500
      5 CAF         -0.0540    -0.5090     2.3840 ca         1 1V6      -0.125000
      6 CAO         -0.7790    -0.0890     1.2620 ca         1 1V6      -0.075300
      7 CAL         -2.2630    -0.2340     1.2280 c3         1 1V6       0.005200
      8 CAP         -2.9750     0.9040     1.8770 ca         1 1V6      -0.068300
      9 CAH         -3.9170     0.6650     2.8840 ca         1 1V6      -0.132000
     10 CAJ         -4.6070     1.7230     3.4690 ca         1 1V6      -0.103500
     11 CAG         -2.7380     2.2200     1.4640 ca         1 1V6      -0.132000
     12 CAI         -3.4250     3.2820     2.0470 ca         1 1V6      -0.103500
     13 CAQ         -4.3660     3.0420     3.0590 ca         1 1V6      -0.122500
     14 CAS         -5.0880     4.1410     3.6930 cc         1 1V6       0.423800
     15 NAM         -5.3440     5.3320     3.0150 nc         1 1V6      -0.680000
     16 CAR         -6.0300     6.1700     3.8150 cd         1 1V6       0.595300
     17 NAA         -6.5690     7.4100     3.4540 nv         1 1V6      -0.883500
     18 SAN         -6.3590     5.5140     5.4020 ss         1 1V6      -0.103300
     19 CAK         -5.5620     4.1070     5.0030 cd         1 1V6      -0.267400
     20 H1          -0.6560     0.7800    -0.7200 ha         1 1V6       0.132000
     21 H2           1.8240     0.9940    -0.6710 ha         1 1V6       0.131000
     22 H3           3.1060     0.2450     1.3350 ha         1 1V6       0.131000
     23 H4           1.8970    -0.7180     3.2950 ha         1 1V6       0.131000
     24 H5          -0.5850    -0.9330     3.2490 ha         1 1V6       0.132000
     25 H6          -2.6090    -0.3060     0.1600 hc         1 1V6       0.056700
     26 H7          -2.5490    -1.1980     1.7320 hc         1 1V6       0.056700
     27 H8          -4.1180    -0.3640     3.2160 ha         1 1V6       0.134000
     28 H9          -5.3530     1.5200     4.2530 ha         1 1V6       0.141000
     29 H10         -1.9940     2.4130     0.6760 ha         1 1V6       0.134000
     30 H11         -3.2270     4.3100     1.7080 ha         1 1V6       0.141000
     31 H12         -6.4520     7.6310     2.4840 hn         1 1V6       0.392300
     32 H13         -6.2310     8.1470     4.0400 hn         1 1V6       0.392300
     33 H14         -5.4240     3.2780     5.6940 h4         1 1V6       0.182000
@<TRIPOS>BOND
     1     1     2 ar  
     2     1     6 ar  
     3     1    20 1   
     4     2     3 ar  
     5     2    21 1   
     6     3     4 ar  
     7     3    22 1   
     8     4     5 ar  
     9     4    23 1   
    10     5     6 ar  
    11     5    24 1   
    12     6     7 1   
    13     7     8 1   
    14     7    25 1   
    15     7    26 1   
    16     8     9 ar  
    17     8    11 ar  
    18     9    10 ar  
    19     9    27 1   
    20    10    13 ar  
    21    10    28 1   
    22    11    12 ar  
    23    11    29 1   
    24    12    13 ar  
    25    12    30 1   
    26    13    14 1   
    27    14    15 1   
    28    14    19 2   
    29    15    16 2   
    30    16    17 1   
    31    16    18 1   
    32    17    31 1   
    33    17    32 1   
    34    18    19 1   
    35    19    33 1   
@<TRIPOS>SUBSTRUCTURE
     1 1V6         1 TEMP              0 ****  ****    0 ROOT
