@<TRIPOS>MOLECULE
molecule
   30    33     1     0     0
SMALL
bcc


@<TRIPOS>ATOM
      1 CAI          0.0000     0.0000     0.0000 ca         1 1V8      -0.080000
      2 CAH          1.3810     0.0000     0.0000 ca         1 1V8       0.043100
      3 OAK          2.2850     0.0000     1.0230 os         1 1V8      -0.322900
      4 CAM          3.5320     0.4140     0.4330 c3         1 1V8       0.331200
      5 OAL          3.4150     0.0010    -0.9400 os         1 1V8      -0.322900
      6 CAJ          2.0770     0.0010    -1.2100 ca         1 1V8       0.072100
      7 CAP          1.3840     0.0010    -2.4120 ca         1 1V8      -0.119000
      8 CAO          0.0060    -0.0000    -2.4180 ca         1 1V8      -0.089000
      9 CAG         -0.6980     0.0010    -1.2120 ca         1 1V8      -0.071800
     10 CAA         -2.1720    -0.0070    -1.2150 cc         1 1V8       0.216900
     11 OAC         -2.8210    -0.0120    -0.0410 os         1 1V8      -0.215200
     12 CAF         -4.1680    -0.0190     0.0400 ca         1 1V8       0.157100
     13 CAR         -4.8080    -0.0250     1.2720 ca         1 1V8      -0.156000
     14 CAT         -6.1860    -0.0300     1.3330 ca         1 1V8      -0.075000
     15 CAS         -6.9440    -0.0300     0.1720 ca         1 1V8      -0.165000
     16 CAQ         -6.3290    -0.0240    -1.0610 ca         1 1V8      -0.040000
     17 CAE         -4.9370    -0.0180    -1.1340 ca         1 1V8      -0.228600
     18 CAD         -4.2370    -0.0120    -2.4350 c          1 1V8       0.586900
     19 OAN         -4.8530    -0.0110    -3.4870 o          1 1V8      -0.548100
     20 CAB         -2.8240    -0.0000    -2.4120 cd         1 1V8      -0.343200
     21 H1          -0.5420     0.0010     0.9380 ha         1 1V8       0.160000
     22 H2           3.6240     1.4920     0.4870 h2         1 1V8       0.075200
     23 H3           4.3540    -0.1110     0.9060 h2         1 1V8       0.075200
     24 H4           1.9280     0.0000    -3.3490 ha         1 1V8       0.152000
     25 H5          -0.5320     0.0000    -3.3590 ha         1 1V8       0.154000
     26 H6          -4.2250    -0.0250     2.1860 ha         1 1V8       0.147000
     27 H7          -6.6810    -0.0340     2.2960 ha         1 1V8       0.139000
     28 H8          -8.0260    -0.0340     0.2340 ha         1 1V8       0.139000
     29 H9          -6.9220    -0.0240    -1.9670 ha         1 1V8       0.159000
     30 H10         -2.2680     0.1440    -3.3300 ha         1 1V8       0.168000
@<TRIPOS>BOND
     1     4     5 1   
     2     4     3 1   
     3     5     6 1   
     4     3     2 1   
     5     6     7 ar  
     6     6     2 ar  
     7     7     8 ar  
     8     2     1 ar  
     9     1     9 ar  
    10     8     9 ar  
    11     9    10 1   
    12    10    11 1   
    13    10    20 2   
    14    11    12 1   
    15    20    18 1   
    16    12    13 ar  
    17    12    17 ar  
    18    18    17 1   
    19    18    19 2   
    20    13    14 ar  
    21    17    16 ar  
    22    14    15 ar  
    23    16    15 ar  
    24     1    21 1   
    25     4    22 1   
    26     4    23 1   
    27     7    24 1   
    28     8    25 1   
    29    13    26 1   
    30    14    27 1   
    31    15    28 1   
    32    16    29 1   
    33    20    30 1   
@<TRIPOS>SUBSTRUCTURE
     1 1V8         1 TEMP              0 ****  ****    0 ROOT
