@<TRIPOS>MOLECULE
1V8
   30    33     1     0     0
SMALL
bcc


@<TRIPOS>ATOM
      1 CAI         -0.0690    -0.3940    -0.0570 ca         1 1V8      -0.084000
      2 CAH          1.3080    -0.4320    -0.0500 ca         1 1V8       0.048100
      3 OAK          2.1590    -0.7750     0.9960 os         1 1V8      -0.329900
      4 CAM          3.5100    -0.6560     0.4910 c3         1 1V8       0.320200
      5 OAL          3.4290    -0.2320    -0.8910 os         1 1V8      -0.329900
      6 CAJ          2.0810    -0.1030    -1.1960 ca         1 1V8       0.078100
      7 CAP          1.4930     0.2720    -2.3860 ca         1 1V8      -0.122000
      8 CAO          0.0890     0.3140    -2.4030 ca         1 1V8      -0.085000
      9 CAG         -0.6760    -0.0030    -1.2750 ca         1 1V8      -0.079800
     10 CAA         -2.1380     0.0740    -1.3330 cc         1 1V8       0.196900
     11 OAC         -2.6050    -0.1860    -2.6140 os         1 1V8      -0.226200
     12 CAF         -3.9770    -0.1400    -2.8050 ca         1 1V8       0.142100
     13 CAR         -4.4090    -0.4090    -4.1170 ca         1 1V8      -0.159000
     14 CAT         -5.7700    -0.3830    -4.3880 ca         1 1V8      -0.078000
     15 CAS         -6.6950    -0.0940    -3.3770 ca         1 1V8      -0.165000
     16 CAQ         -6.2600     0.1710    -2.0840 ca         1 1V8      -0.046000
     17 CAE         -4.8900     0.1510    -1.7800 ca         1 1V8      -0.214600
     18 CAD         -4.4010     0.4280    -0.4210 c          1 1V8       0.589900
     19 OAN         -5.1510     0.6890     0.5300 o          1 1V8      -0.543100
     20 CAB         -2.9460     0.3690    -0.2890 cd         1 1V8      -0.316200
     21 H1          -0.6640    -0.6580     0.8280 ha         1 1V8       0.166000
     22 H2           3.9950    -1.6620     0.5270 h2         1 1V8       0.076700
     23 H3           4.0410     0.1350     1.0750 h2         1 1V8       0.076700
     24 H4           2.0850     0.5250    -3.2750 ha         1 1V8       0.162000
     25 H5          -0.4230     0.6030    -3.3350 ha         1 1V8       0.155000
     26 H6          -3.6700    -0.6360    -4.8980 ha         1 1V8       0.154000
     27 H7          -6.1250    -0.5920    -5.4090 ha         1 1V8       0.140000
     28 H8          -7.7700    -0.0770    -3.6100 ha         1 1V8       0.142000
     29 H9          -6.9750     0.4000    -1.2770 ha         1 1V8       0.161000
     30 H10         -2.5310     0.5860     0.7070 ha         1 1V8       0.170000
@<TRIPOS>BOND
     1     1     2 ar  
     2     1     9 ar  
     3     1    21 1   
     4     2     3 1   
     5     2     6 ar  
     6     3     4 1   
     7     4     5 1   
     8     4    22 1   
     9     4    23 1   
    10     5     6 1   
    11     6     7 ar  
    12     7     8 ar  
    13     7    24 1   
    14     8     9 ar  
    15     8    25 1   
    16     9    10 1   
    17    10    11 1   
    18    10    20 2   
    19    11    12 1   
    20    12    13 ar  
    21    12    17 ar  
    22    13    14 ar  
    23    13    26 1   
    24    14    15 ar  
    25    14    27 1   
    26    15    16 ar  
    27    15    28 1   
    28    16    17 ar  
    29    16    29 1   
    30    17    18 1   
    31    18    19 2   
    32    18    20 1   
    33    20    30 1   
@<TRIPOS>SUBSTRUCTURE
     1 1V8         1 TEMP              0 ****  ****    0 ROOT
