@<TRIPOS>MOLECULE
molecule
   46    48     1     0     0
SMALL
bcc


@<TRIPOS>ATOM
      1 CAI          0.0000     0.0000     0.0000 ca         1 1V9      -0.122000
      2 CAE          1.3810     0.0000     0.0000 ca         1 1V9      -0.123500
      3 CAD          2.0730     0.0000     1.1970 ca         1 1V9      -0.125000
      4 CAF          1.3820    -0.0000     2.3940 ca         1 1V9      -0.123500
      5 CAJ         -0.0010     0.0000     2.3940 ca         1 1V9      -0.122000
      6 CAT         -0.6910    -0.0010     1.1970 ca         1 1V9      -0.098300
      7 CAY         -2.1980     0.0050     1.1960 c3         1 1V9       0.163000
      8 CAM         -2.7030     1.4280     1.4520 c3         1 1V9      -0.091400
      9 CAA         -4.2270     1.4580     1.3280 c3         1 1V9      -0.090100
     10 NAQ         -2.6910    -0.8840     2.2520 ns         1 1V9      -0.577900
     11 CAS         -3.9150    -1.4370     2.1500 c          1 1V9       0.655100
     12 OAB         -4.6090    -1.2010     1.1840 o          1 1V9      -0.623100
     13 CAN         -4.4210    -2.3520     3.2350 c3         1 1V9      -0.141400
     14 CAO         -5.8250    -2.8410     2.8760 c3         1 1V9      -0.102700
     15 CAU         -6.3320    -3.7560     3.9620 cc         1 1V9       0.497900
     16 NAP         -5.5610    -3.9870     4.9820 nd         1 1V9      -0.662100
     17 CAW         -5.9500    -4.7990     5.9960 ca         1 1V9       0.197400
     18 CAK         -5.1210    -5.0490     7.0930 ca         1 1V9      -0.125000
     19 CAG         -5.5560    -5.8790     8.1010 ca         1 1V9      -0.091000
     20 CAH         -6.8100    -6.4740     8.0410 ca         1 1V9      -0.156000
     21 CAL         -7.6450    -6.2440     6.9700 ca         1 1V9      -0.050000
     22 CAX         -7.2240    -5.4060     5.9400 ca         1 1V9      -0.207600
     23 CAV         -8.0710    -5.1230     4.7720 c          1 1V9       0.707100
     24 OAC         -9.1800    -5.6130     4.6600 o          1 1V9      -0.621500
     25 NAR         -7.5730    -4.2920     3.8270 ns         1 1V9      -0.469400
     26 H1          -0.5410    -0.0000    -0.9380 ha         1 1V9       0.130500
     27 H2           1.9230     0.0010    -0.9380 ha         1 1V9       0.132000
     28 H3           3.1560    -0.0000     1.1980 ha         1 1V9       0.132000
     29 H4           1.9240    -0.0000     3.3320 ha         1 1V9       0.132000
     30 H5          -0.5430    -0.0000     3.3320 ha         1 1V9       0.130500
     31 H6          -2.5610    -0.3390     0.2350 h1         1 1V9       0.084700
     32 H7          -2.4150     1.7390     2.4480 hc         1 1V9       0.046700
     33 H8          -2.2690     2.1010     0.7230 hc         1 1V9       0.046700
     34 H9          -4.5640     2.4850     1.2590 hc         1 1V9       0.040033
     35 H10         -4.5280     0.9190     0.4380 hc         1 1V9       0.040033
     36 H11         -4.6700     0.9910     2.2000 hc         1 1V9       0.040033
     37 H12         -2.1020    -1.1120     3.0290 hn         1 1V9       0.318500
     38 H13         -4.4550    -1.8130     4.1740 hc         1 1V9       0.079200
     39 H14         -3.7560    -3.2020     3.3310 hc         1 1V9       0.079200
     40 H15         -5.7910    -3.3800     1.9370 hc         1 1V9       0.080200
     41 H16         -6.4900    -1.9910     2.7810 hc         1 1V9       0.080200
     42 H17         -4.1410    -4.5900     7.1500 ha         1 1V9       0.147000
     43 H18         -4.9120    -6.0720     8.9510 ha         1 1V9       0.134000
     44 H19         -7.1340    -7.1250     8.8440 ha         1 1V9       0.136000
     45 H20         -8.6220    -6.7100     6.9290 ha         1 1V9       0.155000
     46 H21         -8.1240    -4.0700     3.0220 hn         1 1V9       0.340500
@<TRIPOS>BOND
     1    20    21 ar  
     2    20    19 ar  
     3    21    22 ar  
     4    19    18 ar  
     5    22    23 1   
     6    22    17 ar  
     7    24    23 2   
     8    18    17 ar  
     9    23    25 1   
    10    17    16 1   
    11     2     3 ar  
    12     2     1 ar  
    13     3     4 ar  
    14    16    15 2   
    15    25    15 1   
    16     1     6 ar  
    17    13    14 1   
    18    13    11 1   
    19    15    14 1   
    20    10    11 1   
    21    10     7 1   
    22     4     5 ar  
    23    11    12 2   
    24     6     5 ar  
    25     6     7 1   
    26     7     8 1   
    27     8     9 1   
    28     1    26 1   
    29     2    27 1   
    30     3    28 1   
    31     4    29 1   
    32     5    30 1   
    33     7    31 1   
    34     8    32 1   
    35     8    33 1   
    36     9    34 1   
    37     9    35 1   
    38     9    36 1   
    39    10    37 1   
    40    13    38 1   
    41    13    39 1   
    42    14    40 1   
    43    14    41 1   
    44    18    42 1   
    45    19    43 1   
    46    20    44 1   
    47    21    45 1   
    48    25    46 1   
@<TRIPOS>SUBSTRUCTURE
     1 1V9         1 TEMP              0 ****  ****    0 ROOT
