@<TRIPOS>MOLECULE
1V9
   47    49     1     0     0
SMALL
bcc


@<TRIPOS>ATOM
      1 CAI         -0.7350     0.7940    -0.5840 ca         1 1V9      -0.111500
      2 CAE          0.6350     1.0360    -0.5180 ca         1 1V9      -0.116500
      3 CAD          1.3160     0.8810     0.6920 ca         1 1V9      -0.087000
      4 CAF          0.6230     0.4860     1.8370 ca         1 1V9      -0.116500
      5 CAJ         -0.7500     0.2490     1.7770 ca         1 1V9      -0.111500
      6 CAT         -1.4330     0.4010     0.5650 ca         1 1V9      -0.177300
      7 CAY         -2.9000     0.0980     0.5050 c3         1 1V9       0.188800
      8 CAM         -3.1870    -1.0240    -0.4990 c3         1 1V9      -0.105400
      9 CAA         -4.6320    -1.4470    -0.5180 c3         1 1V9      -0.122100
     10 NAQ         -3.6860     1.3470     0.1640 ny         1 1V9      -0.664800
     11 CAS         -3.7880     2.3100     1.3170 c          1 1V9       0.574100
     12 OAB         -4.3040     1.8810     2.3400 o          1 1V9      -0.431100
     13 CAN         -3.2650     3.7040     1.0990 c3         1 1V9      -0.133400
     14 CAO         -4.3930     4.7170     1.1130 c3         1 1V9      -0.130700
     15 CAU         -5.3220     4.6180    -0.0890 cc         1 1V9       0.507900
     16 NAP         -5.3900     3.4780    -0.7600 nd         1 1V9      -0.736100
     17 CAW         -6.2770     3.3910    -1.8420 ca         1 1V9       0.175400
     18 CAK         -6.3900     2.1880    -2.5770 ca         1 1V9      -0.147000
     19 CAG         -7.2700     2.1090    -3.6480 ca         1 1V9      -0.075000
     20 CAH         -8.0550     3.2060    -4.0190 ca         1 1V9      -0.133000
     21 CAL         -7.9640     4.3980    -3.3100 ca         1 1V9      -0.043000
     22 CAX         -7.0830     4.4960    -2.2270 ca         1 1V9      -0.176600
     23 CAV         -6.9850     5.7540    -1.4650 c          1 1V9       0.710100
     24 OAC         -7.6250     6.7900    -1.6890 o          1 1V9      -0.569500
     25 NAR         -6.0700     5.7510    -0.3850 ns         1 1V9      -0.488400
     26 H1          -1.2560     0.8930    -1.5490 ha         1 1V9       0.139000
     27 H2           1.1840     1.3390    -1.4240 ha         1 1V9       0.158500
     28 H3           2.4020     1.0640     0.7400 ha         1 1V9       0.160000
     29 H4           1.1600     0.3550     2.7900 ha         1 1V9       0.158500
     30 H5          -1.2880    -0.0710     2.6840 ha         1 1V9       0.139000
     31 H6          -3.2730    -0.2280     1.5270 hx         1 1V9       0.117700
     32 H7          -2.8520    -0.7250    -1.5270 hc         1 1V9       0.085700
     33 H8          -2.5430    -1.8930    -0.1850 hc         1 1V9       0.085700
     34 H9          -5.0320    -1.5730     0.5170 hc         1 1V9       0.055700
     35 H10         -5.2730    -0.7130    -1.0660 hc         1 1V9       0.055700
     36 H11         -4.7260    -2.4300    -1.0460 hc         1 1V9       0.055700
     37 H12         -4.6420     1.0670    -0.1040 hn         1 1V9       0.466800
     38 H13         -2.5690     3.9240     1.9600 hc         1 1V9       0.107700
     39 H14         -2.6730     3.7960     0.1500 hc         1 1V9       0.107700
     40 H15         -5.0160     4.5890     2.0420 hc         1 1V9       0.102200
     41 H16         -3.9270     5.7420     1.1470 hc         1 1V9       0.102200
     42 H17         -5.7860     1.3120    -2.3010 ha         1 1V9       0.118000
     43 H18         -7.3520     1.1670    -4.2160 ha         1 1V9       0.150000
     44 H19         -8.7470     3.1230    -4.8720 ha         1 1V9       0.160000
     45 H20         -8.5780     5.2740    -3.5850 ha         1 1V9       0.175000
     46 H21         -5.9790     6.5750     0.1680 hn         1 1V9       0.348500
     47 HAQ2        -3.2530     1.8150    -0.6390 hn         1 1V9       0.466800
@<TRIPOS>BOND
     1     1     2 ar  
     2     1     6 ar  
     3     1    26 1   
     4     2     3 ar  
     5     2    27 1   
     6     3     4 ar  
     7     3    28 1   
     8     4     5 ar  
     9     4    29 1   
    10     5     6 ar  
    11     5    30 1   
    12     6     7 1   
    13     7     8 1   
    14     7    10 1   
    15     7    31 1   
    16     8     9 1   
    17     8    32 1   
    18     8    33 1   
    19     9    34 1   
    20     9    35 1   
    21     9    36 1   
    22    10    11 1   
    23    10    37 1   
    24    10    47 1   
    25    11    12 2   
    26    11    13 1   
    27    13    14 1   
    28    13    38 1   
    29    13    39 1   
    30    14    15 1   
    31    14    40 1   
    32    14    41 1   
    33    15    16 2   
    34    15    25 1   
    35    16    17 1   
    36    17    18 ar  
    37    17    22 ar  
    38    18    19 ar  
    39    18    42 1   
    40    19    20 ar  
    41    19    43 1   
    42    20    21 ar  
    43    20    44 1   
    44    21    22 ar  
    45    21    45 1   
    46    22    23 1   
    47    23    24 2   
    48    23    25 1   
    49    25    46 1   
@<TRIPOS>SUBSTRUCTURE
     1 1V9         1 TEMP              0 ****  ****    0 ROOT
