@<TRIPOS>MOLECULE
molecule
   47    49     1     0     0
SMALL
bcc


@<TRIPOS>ATOM
      1 CAI          0.0000     0.0000     0.0000 ca         1 1VA      -0.123500
      2 CAE          1.3820     0.0000     0.0000 ca         1 1VA      -0.124000
      3 CAD          2.0740     0.0000     1.1970 ca         1 1VA      -0.129000
      4 CAF          1.3830     0.0020     2.3950 ca         1 1VA      -0.124000
      5 CAJ          0.0010     0.0020     2.3950 ca         1 1VA      -0.123500
      6 CAU         -0.6910     0.0000     1.1980 ca         1 1VA      -0.085300
      7 CAP         -2.1980    -0.0000     1.1980 c3         1 1VA      -0.045100
      8 CAZ         -2.7070    -1.4430     1.1990 c3         1 1VA       0.127700
      9 CAM         -4.2320    -1.4460     1.3250 c3         1 1VA       0.118400
     10 OAC         -4.7970    -0.6430     0.2860 oh         1 1VA      -0.617800
     11 NAR         -2.3190    -2.0990    -0.0520 ns         1 1VA      -0.567900
     12 CAT         -2.1920    -3.4400    -0.0990 c          1 1VA       0.655100
     13 OAA         -2.3980    -4.1040     0.8960 o          1 1VA      -0.630100
     14 CAN         -1.7940    -4.1150    -1.3860 c3         1 1VA      -0.140400
     15 CAO         -1.7210    -5.6280    -1.1680 c3         1 1VA      -0.102700
     16 CAV         -1.3230    -6.3030    -2.4550 cc         1 1VA       0.497900
     17 NAQ         -1.1090    -5.5600    -3.4990 nd         1 1VA      -0.662100
     18 CAX         -0.7480    -6.0970    -4.6920 ca         1 1VA       0.197400
     19 CAK         -0.5190    -5.3000    -5.8140 ca         1 1VA      -0.125000
     20 CAG         -0.1540    -5.8880    -7.0050 ca         1 1VA      -0.091000
     21 CAH         -0.0110    -7.2640    -7.1030 ca         1 1VA      -0.156000
     22 CAL         -0.2300    -8.0730    -6.0090 ca         1 1VA      -0.050000
     23 CAY         -0.6000    -7.4980    -4.7960 ca         1 1VA      -0.207600
     24 CAW         -0.8490    -8.3090    -3.5940 c          1 1VA       0.708100
     25 OAB         -0.7390    -9.5210    -3.6150 o          1 1VA      -0.621500
     26 NAS         -1.1990    -7.6550    -2.4620 ns         1 1VA      -0.470400
     27 H1          -0.5420    -0.0000    -0.9380 ha         1 1VA       0.126500
     28 H2           1.9240    -0.0010    -0.9380 ha         1 1VA       0.129500
     29 H3           3.1580    -0.0000     1.1960 ha         1 1VA       0.130000
     30 H4           1.9250     0.0020     3.3330 ha         1 1VA       0.129500
     31 H5          -0.5410     0.0030     3.3330 ha         1 1VA       0.126500
     32 H6          -2.5600     0.5110     2.0820 hc         1 1VA       0.064700
     33 H7          -2.5590     0.5100     0.3130 hc         1 1VA       0.064700
     34 H8          -2.2740    -1.9780     2.0360 h1         1 1VA       0.090700
     35 H9          -4.5990    -2.4610     1.2370 h1         1 1VA       0.035200
     36 H10         -4.5150    -1.0420     2.2890 h1         1 1VA       0.035200
     37 H11         -5.7360    -0.6330     0.3730 ho         1 1VA       0.405000
     38 H12         -2.1930    -1.5560    -0.8830 hn         1 1VA       0.322500
     39 H13         -2.5280    -3.8960    -2.1520 hc         1 1VA       0.080200
     40 H14         -0.8240    -3.7490    -1.7000 hc         1 1VA       0.080200
     41 H15         -2.6910    -5.9940    -0.8540 hc         1 1VA       0.079700
     42 H16         -0.9870    -5.8480    -0.4030 hc         1 1VA       0.079700
     43 H17         -0.6280    -4.2240    -5.7490 ha         1 1VA       0.147000
     44 H18          0.0220    -5.2680    -7.8760 ha         1 1VA       0.134000
     45 H19          0.2770    -7.7080    -8.0490 ha         1 1VA       0.136000
     46 H20         -0.1160    -9.1470    -6.0920 ha         1 1VA       0.155000
     47 H21         -1.3680    -8.1730    -1.6230 hn         1 1VA       0.340500
@<TRIPOS>BOND
     1    21    20 ar
     2    21    22 ar
     3    20    19 ar
     4    22    23 ar
     5    19    18 ar
     6    23    18 ar
     7    23    24 1
     8    25    24 2
     9    18    17 1
    10    24    26 1
    11    17    16 2
    12    26    16 1
    13    16    15 1
    14    14    15 1
    15    14    12 1
    16    10     9 1
    17    11    12 1
    18    11     8 1
    19     9     8 1
    20    12    13 2
    21     8     7 1
    22     7     6 1
    23     1     6 ar
    24     1     2 ar
    25     6     5 ar
    26     2     3 ar
    27     5     4 ar
    28     3     4 ar
    29     1    27 1
    30     2    28 1
    31     3    29 1
    32     4    30 1
    33     5    31 1
    34     7    32 1
    35     7    33 1
    36     8    34 1
    37     9    35 1
    38     9    36 1
    39    10    37 1
    40    11    38 1
    41    14    39 1
    42    14    40 1
    43    15    41 1
    44    15    42 1
    45    19    43 1
    46    20    44 1
    47    21    45 1
    48    22    46 1
    49    26    47 1
@<TRIPOS>SUBSTRUCTURE
     1 1VA         1 TEMP              0 ****  ****    0 ROOT
