@<TRIPOS>MOLECULE
1VA
   47    49     1     0     0
SMALL
bcc


@<TRIPOS>ATOM
      1 CAI          0.0000     0.0000     0.0000 ca         1 1VA      -0.099000
      2 CAE          1.3820     0.0000     0.0000 ca         1 1VA      -0.095500
      3 CAD          2.0740     0.0000     1.1970 ca         1 1VA      -0.102000
      4 CAF          1.3830     0.0020     2.3950 ca         1 1VA      -0.095500
      5 CAJ          0.0010     0.0020     2.3950 ca         1 1VA      -0.099000
      6 CAU         -0.6910     0.0000     1.1980 ca         1 1VA      -0.096300
      7 CAP         -2.1980    -0.0000     1.1980 c3         1 1VA       0.019900
      8 CAZ         -2.7070    -1.4430     1.1990 c3         1 1VA       0.016700
      9 CAM         -4.2320    -1.4460     1.3250 c3         1 1VA       0.201400
     10 OAC         -4.7970    -0.6430     0.2860 oh         1 1VA      -0.602800
     11 NAR         -2.3190    -2.0990    -0.0520 ns         1 1VA      -0.176900
     12 CAT         -2.1920    -3.4400    -0.0990 c          1 1VA       0.570100
     13 OAA         -2.3980    -4.1040     0.8960 o          1 1VA      -0.670100
     14 CAN         -1.7940    -4.1150    -1.3860 c3         1 1VA      -0.087400
     15 CAO         -1.7210    -5.6280    -1.1680 c3         1 1VA      -0.043700
     16 CAV         -1.3230    -6.3030    -2.4550 cc         1 1VA       0.291900
     17 NAQ         -1.1090    -5.5600    -3.4990 nd         1 1VA      -0.556100
     18 CAX         -0.7480    -6.0970    -4.6920 ca         1 1VA       0.156400
     19 CAK         -0.5190    -5.3000    -5.8140 ca         1 1VA      -0.101000
     20 CAG         -0.1540    -5.8880    -7.0050 ca         1 1VA      -0.062000
     21 CAH         -0.0110    -7.2640    -7.1030 ca         1 1VA      -0.131000
     22 CAL         -0.2300    -8.0730    -6.0090 ca         1 1VA      -0.013000
     23 CAY         -0.6000    -7.4980    -4.7960 ca         1 1VA      -0.217600
     24 CAW         -0.8490    -8.3090    -3.5940 c          1 1VA       0.618100
     25 OAB         -0.7390    -9.5210    -3.6150 o          1 1VA      -0.662500
     26 NAS         -1.1990    -7.6550    -2.4620 ns         1 1VA      -0.004400
     27 H1          -0.5420    -0.0000    -0.9380 ha         1 1VA       0.104500
     28 H2           1.9240    -0.0010    -0.9380 ha         1 1VA       0.103000
     29 H3           3.1580    -0.0000     1.1960 ha         1 1VA       0.103000
     30 H4           1.9250     0.0020     3.3330 ha         1 1VA       0.103000
     31 H5          -0.5410     0.0030     3.3330 ha         1 1VA       0.104500
     32 H6          -2.5600     0.5110     2.0820 hc         1 1VA       0.033200
     33 H7          -2.5590     0.5100     0.3130 hc         1 1VA       0.033200
     34 H8          -2.2740    -1.9780     2.0360 h1         1 1VA       0.064700
     35 H9          -4.5990    -2.4610     1.2370 h1         1 1VA       0.001200
     36 H10         -4.5150    -1.0420     2.2890 h1         1 1VA       0.001200
     37 H11         -5.7360    -0.6330     0.3730 ho         1 1VA       0.395000
     38 H12         -2.1930    -1.5560    -0.8830 hn         1 1VA       0.183500
     39 H13         -2.5280    -3.8960    -2.1520 hc         1 1VA       0.044700
     40 H14         -0.8240    -3.7490    -1.7000 hc         1 1VA       0.044700
     41 H15         -2.6910    -5.9940    -0.8540 hc         1 1VA       0.042200
     42 H16         -0.9870    -5.8480    -0.4030 hc         1 1VA       0.042200
     43 H17         -0.6280    -4.2240    -5.7490 ha         1 1VA       0.117000
     44 H18          0.0220    -5.2680    -7.8760 ha         1 1VA       0.102000
     45 H19          0.2770    -7.7080    -8.0490 ha         1 1VA       0.108000
     46 H20         -0.1160    -9.1470    -6.0920 ha         1 1VA       0.124000
     47 H21         -1.3680    -8.1730    -1.6230 hn         1 1VA       0.184500
@<TRIPOS>BOND
     1     1     2 ar  
     2     1     6 ar  
     3     1    27 1   
     4     2     3 ar  
     5     2    28 1   
     6     3     4 ar  
     7     3    29 1   
     8     4     5 ar  
     9     4    30 1   
    10     5     6 ar  
    11     5    31 1   
    12     6     7 1   
    13     7     8 1   
    14     7    32 1   
    15     7    33 1   
    16     8     9 1   
    17     8    11 1   
    18     8    34 1   
    19     9    10 1   
    20     9    35 1   
    21     9    36 1   
    22    10    37 1   
    23    11    12 1   
    24    11    38 1   
    25    12    13 2   
    26    12    14 1   
    27    14    15 1   
    28    14    39 1   
    29    14    40 1   
    30    15    16 1   
    31    15    41 1   
    32    15    42 1   
    33    16    17 2   
    34    16    26 1   
    35    17    18 1   
    36    18    19 ar  
    37    18    23 ar  
    38    19    20 ar  
    39    19    43 1   
    40    20    21 ar  
    41    20    44 1   
    42    21    22 ar  
    43    21    45 1   
    44    22    23 ar  
    45    22    46 1   
    46    23    24 1   
    47    24    25 2   
    48    24    26 1   
    49    26    47 1   
@<TRIPOS>SUBSTRUCTURE
     1 1VA         1 TEMP              0 ****  ****    0 ROOT
