@<TRIPOS>MOLECULE
1VA
   48    50     1     0     0
SMALL
bcc


@<TRIPOS>ATOM
      1 CAI          0.7390    -0.5550    -0.7880 ca         1 1VA      -0.128500
      2 CAE          2.0800    -0.2050    -0.6430 ca         1 1VA      -0.113000
      3 CAD          2.5040     0.4870     0.4920 ca         1 1VA      -0.099000
      4 CAF          1.5830     0.8330     1.4810 ca         1 1VA      -0.113000
      5 CAJ          0.2400     0.4860     1.3390 ca         1 1VA      -0.128500
      6 CAU         -0.1880    -0.2140     0.2050 ca         1 1VA      -0.151300
      7 CAP         -1.6240    -0.5630     0.0400 c3         1 1VA      -0.053100
      8 CAZ         -2.0050    -1.8110     0.8510 c3         1 1VA       0.116500
      9 CAM         -3.5030    -2.1010     0.6340 c3         1 1VA       0.111400
     10 OAC         -3.8130    -3.3100     1.3020 oh         1 1VA      -0.635800
     11 NAR         -1.1430    -2.9890     0.4880 ny         1 1VA      -0.656800
     12 CAT         -1.0050    -3.9700     1.6290 c          1 1VA       0.587100
     13 OAA         -0.3040    -3.6080     2.5620 o          1 1VA      -0.433100
     14 CAN         -1.7350    -5.2770     1.5000 c3         1 1VA      -0.124400
     15 CAO         -0.7650    -6.4360     1.3970 c3         1 1VA      -0.131700
     16 CAV          0.0300    -6.4600     0.1000 cc         1 1VA       0.508900
     17 NAQ          0.1440    -5.3500    -0.6140 nd         1 1VA      -0.731100
     18 CAX          0.8990    -5.3910    -1.7950 ca         1 1VA       0.177400
     19 CAK          1.0440    -4.2290    -2.5880 ca         1 1VA      -0.146000
     20 CAG          1.7890    -4.2760    -3.7590 ca         1 1VA      -0.077000
     21 CAH          2.4060    -5.4610    -4.1740 ca         1 1VA      -0.135000
     22 CAL          2.2800    -6.6150    -3.4100 ca         1 1VA      -0.043000
     23 CAY          1.5320    -6.5860    -2.2270 ca         1 1VA      -0.177600
     24 CAW          1.3940    -7.8060    -1.4110 c          1 1VA       0.710100
     25 OAB          1.8940    -8.9090    -1.6660 o          1 1VA      -0.572500
     26 NAS          0.6150    -7.6760    -0.2370 ns         1 1VA      -0.488400
     27 H1           0.4060    -1.0700    -1.7020 ha         1 1VA       0.133500
     28 H2           2.8040    -0.4670    -1.4310 ha         1 1VA       0.153000
     29 H3           3.5640     0.7670     0.6030 ha         1 1VA       0.156000
     30 H4           1.9140     1.3880     2.3740 ha         1 1VA       0.153000
     31 H5          -0.4850     0.7730     2.1150 ha         1 1VA       0.133500
     32 H6          -1.8710    -0.7200    -1.0440 hc         1 1VA       0.085700
     33 H7          -2.2680     0.2810     0.4120 hc         1 1VA       0.085700
     34 H8          -1.8170    -1.6070     1.9500 hx         1 1VA       0.121700
     35 H9          -4.0860    -1.2360     1.0490 h1         1 1VA       0.071200
     36 H10         -3.7330    -2.2160    -0.4610 h1         1 1VA       0.071200
     37 H11         -4.7500    -3.2820     1.5390 ho         1 1VA       0.447000
     38 H12         -0.2010    -2.6440     0.2360 hn         1 1VA       0.471300
     39 H13         -2.4520    -5.2780     0.6350 hc         1 1VA       0.111700
     40 H14         -2.3520    -5.3880     2.4380 hc         1 1VA       0.111700
     41 H15         -0.0320    -6.4010     2.2510 hc         1 1VA       0.100700
     42 H16         -1.3600    -7.3860     1.4910 hc         1 1VA       0.100700
     43 H17          0.5710    -3.2860    -2.2780 ha         1 1VA       0.118000
     44 H18          1.8950    -3.3660    -4.3720 ha         1 1VA       0.148000
     45 H19          2.9930    -5.4780    -5.1060 ha         1 1VA       0.159000
     46 H20          2.7610    -7.5590    -3.7190 ha         1 1VA       0.174000
     47 H21          0.4980    -8.4720     0.3520 hn         1 1VA       0.348500
     48 HAR2        -1.5430    -3.4690    -0.3260 hn         1 1VA       0.471300
@<TRIPOS>BOND
     1     1     2 ar  
     2     1     6 ar  
     3     1    27 1   
     4     2     3 ar  
     5     2    28 1   
     6     3     4 ar  
     7     3    29 1   
     8     4     5 ar  
     9     4    30 1   
    10     5     6 ar  
    11     5    31 1   
    12     6     7 1   
    13     7     8 1   
    14     7    32 1   
    15     7    33 1   
    16     8     9 1   
    17     8    11 1   
    18     8    34 1   
    19     9    10 1   
    20     9    35 1   
    21     9    36 1   
    22    10    37 1   
    23    11    12 1   
    24    11    38 1   
    25    11    48 1   
    26    12    13 2   
    27    12    14 1   
    28    14    15 1   
    29    14    39 1   
    30    14    40 1   
    31    15    16 1   
    32    15    41 1   
    33    15    42 1   
    34    16    17 2   
    35    16    26 1   
    36    17    18 1   
    37    18    19 ar  
    38    18    23 ar  
    39    19    20 ar  
    40    19    43 1   
    41    20    21 ar  
    42    20    44 1   
    43    21    22 ar  
    44    21    45 1   
    45    22    23 ar  
    46    22    46 1   
    47    23    24 1   
    48    24    25 2   
    49    24    26 1   
    50    26    47 1   
@<TRIPOS>SUBSTRUCTURE
     1 1VA         1 TEMP              0 ****  ****    0 ROOT
