@<TRIPOS>MOLECULE
1VB
   50    52     1     0     0
SMALL
bcc


@<TRIPOS>ATOM
      1 CAI          0.2590    -0.4050     0.0390 ca         1 1VB      -0.126500
      2 CAK          1.6370    -0.4120     0.2310 ca         1 1VB       0.016500
      3 CAV          2.2060    -0.0100     1.4560 ca         1 1VB      -0.490500
      4 SBB          3.8240     0.1140     1.6270 sy         1 1VB       1.468200
      5 OAE          4.5030     0.0460     0.4330 o          1 1VB      -0.540800
      6 OAF          4.2010     0.9040     2.6880 o          1 1VB      -0.540800
      7 NAB          4.1900    -1.6030     2.3310 nz         1 1VB      -0.798500
      8 CAL          1.3350     0.4000     2.4830 ca         1 1VB       0.016500
      9 CAJ         -0.0460     0.4090     2.2990 ca         1 1VB      -0.126500
     10 CAU         -0.5920     0.0020     1.0750 ca         1 1VB      -0.040300
     11 CBA         -2.0920    -0.0300     0.9150 c3         1 1VB       0.166800
     12 CAA         -2.5590    -1.4180     0.4850 c3         1 1VB      -0.136100
     13 NAR         -2.5750     1.0290    -0.0470 ny         1 1VB      -0.697800
     14 CAT         -2.9050     2.3830     0.5950 c          1 1VB       0.555100
     15 OAC         -2.5160     2.5430     1.7380 o          1 1VB      -0.409100
     16 CAO         -3.6720     3.3070    -0.3030 c3         1 1VB      -0.142400
     17 CAP         -3.9110     4.6380     0.3880 c3         1 1VB      -0.116700
     18 CAW         -4.6850     5.6030    -0.5010 cc         1 1VB       0.471900
     19 NAQ         -5.0300     5.2360    -1.7210 nd         1 1VB      -0.650100
     20 CAY         -5.7440     6.1490    -2.5130 ca         1 1VB       0.160400
     21 CAM         -6.1370     5.7950    -3.8230 ca         1 1VB      -0.120000
     22 CAG         -6.8440     6.7030    -4.6020 ca         1 1VB      -0.084000
     23 CAH         -7.1760     7.9710    -4.1100 ca         1 1VB      -0.125000
     24 CAN         -6.7990     8.3400    -2.8240 ca         1 1VB      -0.052000
     25 CAZ         -6.0870     7.4390    -2.0250 ca         1 1VB      -0.172600
     26 CAX         -5.6850     7.8220    -0.6600 c          1 1VB       0.712100
     27 OAD         -5.9130     8.9070    -0.1090 o          1 1VB      -0.574500
     28 NAS         -4.9720     6.8420     0.0710 ns         1 1VB      -0.499400
     29 H1          -0.1500    -0.7390    -0.9300 ha         1 1VB       0.179500
     30 H2           2.2970    -0.7200    -0.6060 ha         1 1VB       0.189000
     31 H3           4.6370    -1.5240     3.2480 hn         1 1VB       0.468800
     32 H4           3.3650    -2.1870     2.4440 hn         1 1VB       0.468800
     33 H5           1.7500     0.7500     3.4510 ha         1 1VB       0.189000
     34 H6          -0.7020     0.7510     3.1200 ha         1 1VB       0.179500
     35 H7          -2.5740     0.2110     1.9170 hx         1 1VB       0.136700
     36 H8          -3.6760    -1.4790     0.4660 hc         1 1VB       0.088700
     37 H9          -2.1590    -1.7040    -0.5170 hc         1 1VB       0.088700
     38 H10         -2.1920    -2.1620     1.2380 hc         1 1VB       0.088700
     39 H11         -1.8650     1.1850    -0.7710 hn         1 1VB       0.463800
     40 H12         -4.6600     2.8330    -0.5700 hc         1 1VB       0.128700
     41 H13         -3.0990     3.4660    -1.2600 hc         1 1VB       0.128700
     42 H14         -4.4910     4.4730     1.3370 hc         1 1VB       0.087700
     43 H15         -2.9280     5.1080     0.6600 hc         1 1VB       0.087700
     44 H16         -5.8860     4.8030    -4.2270 ha         1 1VB       0.144000
     45 H17         -7.1490     6.4200    -5.6230 ha         1 1VB       0.153000
     46 H18         -7.7370     8.6760    -4.7440 ha         1 1VB       0.160000
     47 H19         -7.0530     9.3350    -2.4190 ha         1 1VB       0.174000
     48 H20         -4.6870     7.0500     1.0020 hn         1 1VB       0.339500
     49 HAB3         4.8410    -2.1070     1.7230 hn         1 1VB       0.468800
     50 HAR2        -3.4270     0.6840    -0.5090 hn         1 1VB       0.463800
@<TRIPOS>BOND
     1     1     2 ar  
     2     1    10 ar  
     3     1    29 1   
     4     2     3 ar  
     5     2    30 1   
     6     3     4 1   
     7     3     8 ar  
     8     4     5 2   
     9     4     6 2   
    10     4     7 1   
    11     7    31 1   
    12     7    32 1   
    13     7    49 1   
    14     8     9 ar  
    15     8    33 1   
    16     9    10 ar  
    17     9    34 1   
    18    10    11 1   
    19    11    12 1   
    20    11    13 1   
    21    11    35 1   
    22    12    36 1   
    23    12    37 1   
    24    12    38 1   
    25    13    14 1   
    26    13    39 1   
    27    13    50 1   
    28    14    15 2   
    29    14    16 1   
    30    16    17 1   
    31    16    40 1   
    32    16    41 1   
    33    17    18 1   
    34    17    42 1   
    35    17    43 1   
    36    18    19 2   
    37    18    28 1   
    38    19    20 1   
    39    20    21 ar  
    40    20    25 ar  
    41    21    22 ar  
    42    21    44 1   
    43    22    23 ar  
    44    22    45 1   
    45    23    24 ar  
    46    23    46 1   
    47    24    25 ar  
    48    24    47 1   
    49    25    26 1   
    50    26    27 2   
    51    26    28 1   
    52    28    48 1   
@<TRIPOS>SUBSTRUCTURE
     1 1VB         1 TEMP              0 ****  ****    0 ROOT
