@<TRIPOS>MOLECULE
molecule
   49    51     1     0     0
SMALL
bcc


@<TRIPOS>ATOM
      1 CAI          0.0000     0.0000     0.0000 ca         1 1VB      -0.128500
      2 CAK          1.3820     0.0000     0.0000 ca         1 1VB      -0.024000
      3 CAV          2.0730     0.0000     1.1970 ca         1 1VB      -0.346500
      4 SBB          3.8360     0.0000     1.1970 sy         1 1VB       1.227200
      5 OAE          4.2370    -0.5440     2.4460 o          1 1VB      -0.517300
      6 OAF          4.2370    -0.5430    -0.0540 o          1 1VB      -0.517300
      7 NAB          4.3250     1.5820     1.1980 nz         1 1VB      -0.806500
      8 CAL          1.3830    -0.0010     2.3940 ca         1 1VB      -0.024000
      9 CAJ          0.0000    -0.0010     2.3940 ca         1 1VB      -0.128500
     10 CAU         -0.6910    -0.0010     1.1970 ca         1 1VB       0.010700
     11 CBA         -2.1990     0.0050     1.1980 c3         1 1VB       0.146000
     12 CAA         -2.7020     1.4270     1.4520 c3         1 1VB      -0.104100
     13 NAR         -2.6890    -0.8840     2.2530 ns         1 1VB      -0.596900
     14 CAT         -3.9140    -1.4380     2.1510 c          1 1VB       0.658100
     15 OAC         -4.6080    -1.2020     1.1850 o          1 1VB      -0.600100
     16 CAO         -4.4200    -2.3530     3.2370 c3         1 1VB      -0.137400
     17 CAP         -5.8240    -2.8420     2.8780 c3         1 1VB      -0.101700
     18 CAW         -6.3300    -3.7580     3.9640 cc         1 1VB       0.493900
     19 NAQ         -5.5600    -3.9890     4.9830 nd         1 1VB      -0.669100
     20 CAY         -5.9470    -4.8010     5.9980 ca         1 1VB       0.191400
     21 CAM         -5.1190    -5.0500     7.0940 ca         1 1VB      -0.127000
     22 CAG         -5.5540    -5.8810     8.1020 ca         1 1VB      -0.089000
     23 CAH         -6.8070    -6.4760     8.0420 ca         1 1VB      -0.148000
     24 CAN         -7.6420    -6.2460     6.9720 ca         1 1VB      -0.047000
     25 CAZ         -7.2220    -5.4070     5.9420 ca         1 1VB      -0.203600
     26 CAX         -8.0690    -5.1250     4.7730 c          1 1VB       0.707100
     27 OAD         -9.1770    -5.6160     4.6620 o          1 1VB      -0.609500
     28 NAS         -7.5710    -4.2930     3.8280 ns         1 1VB      -0.470400
     29 H1          -0.5420    -0.0180    -0.9380 ha         1 1VB       0.168000
     30 H2           1.9240    -0.0110    -0.9380 ha         1 1VB       0.158500
     31 H3           5.3250     1.6220     1.1900 hn         1 1VB       0.492133
     32 H4           3.9670     2.0430     0.3850 hn         1 1VB       0.492133
     33 H5           1.9250    -0.0280     3.3320 ha         1 1VB       0.158500
     34 H6          -0.5410     0.0360     3.3320 ha         1 1VB       0.168000
     35 H7          -2.5610    -0.3400     0.2370 h1         1 1VB       0.101700
     36 H8          -3.2050     1.4660     2.4110 hc         1 1VB       0.054367
     37 H9          -3.3950     1.7100     0.6690 hc         1 1VB       0.054367
     38 H10         -1.8630     2.1120     1.4570 hc         1 1VB       0.054367
     39 H11         -2.0970    -1.1180     3.0260 hn         1 1VB       0.317500
     40 H12         -3.7540    -3.2020     3.3320 hc         1 1VB       0.083200
     41 H13         -4.4540    -1.8140     4.1760 hc         1 1VB       0.083200
     42 H14         -5.7900    -3.3810     1.9380 hc         1 1VB       0.081200
     43 H15         -6.4890    -1.9920     2.7830 hc         1 1VB       0.081200
     44 H16         -4.1390    -4.5910     7.1510 ha         1 1VB       0.142000
     45 H17         -4.9100    -6.0740     8.9520 ha         1 1VB       0.137000
     46 H18         -7.1310    -7.1270     8.8450 ha         1 1VB       0.142000
     47 H19         -8.6190    -6.7130     6.9310 ha         1 1VB       0.159000
     48 H20         -8.1230    -4.0700     3.0230 hn         1 1VB       0.341500
     49 HAB3         3.9700     2.0410     2.0130 hn         1 1VB       0.492133
@<TRIPOS>BOND
     1     6     4 2
     2    23    24 ar
     3    23    22 ar
     4    24    25 ar
     5    22    21 ar
     6     5     4 2
     7     4     7 1
     8     4     3 1
     9    25    20 ar
    10    25    26 1
    11    21    20 ar
    12    27    26 2
    13    20    19 1
    14    26    28 1
    15     2     3 ar
    16     2     1 ar
    17    19    18 2
    18    28    18 1
    19     3     8 ar
    20    18    17 1
    21     1    10 ar
    22    16    17 1
    23    16    14 1
    24     8     9 ar
    25    10     9 ar
    26    10    11 1
    27    14    13 1
    28    14    15 2
    29    13    11 1
    30    11    12 1
    31     1    29 1
    32     2    30 1
    33     7    31 1
    34     7    32 1
    35     8    33 1
    36     9    34 1
    37    11    35 1
    38    12    36 1
    39    12    37 1
    40    12    38 1
    41    13    39 1
    42    16    40 1
    43    16    41 1
    44    17    42 1
    45    17    43 1
    46    21    44 1
    47    22    45 1
    48    23    46 1
    49    24    47 1
    50    28    48 1
    51    49     7 1
@<TRIPOS>SUBSTRUCTURE
     1 1VB         1 TEMP              0 ****  ****    0 ROOT
