@<TRIPOS>MOLECULE
molecule
   49    51     1     0     0
SMALL
bcc


@<TRIPOS>ATOM
      1 CD1          0.0000     0.0000     0.0000 ca         1 1VC      -0.121000
      2 CE1          1.3820     0.0000     0.0000 ca         1 1VC      -0.123000
      3 CZ           2.0740     0.0000     1.1960 ca         1 1VC      -0.124000
      4 CE2          1.3830    -0.0010     2.3940 ca         1 1VC      -0.123000
      5 CD2          0.0010    -0.0000     2.3950 ca         1 1VC      -0.121000
      6 CG          -0.6910     0.0070     1.1990 ca         1 1VC      -0.090300
      7 CB          -2.1970     0.0070     1.1990 c3         1 1VC      -0.043100
      8 CA          -2.7070     1.4500     1.2070 c3         1 1VC       0.080700
      9 C           -4.2090     1.4530     1.0840 c          1 1VC       0.613100
     10 O           -4.8860     1.9470     1.9550 o          1 1VC      -0.537000
     11 OAT         -4.7950     0.9080     0.0060 os         1 1VC      -0.431900
     12 CAA         -6.2460     0.9460    -0.0450 c3         1 1VC       0.139700
     13 N           -2.3190     2.0990     2.4610 ns         1 1VC      -0.562900
     14 CAU         -2.1910     3.4390     2.5160 c          1 1VC       0.666100
     15 OAB         -2.3970     4.1090     1.5250 o          1 1VC      -0.616100
     16 CAN         -1.7910     4.1060     3.8060 c3         1 1VC      -0.137400
     17 CAO         -1.7200     5.6200     3.5970 c3         1 1VC      -0.103700
     18 CAX         -1.3190     6.2870     4.8870 cc         1 1VC       0.499900
     19 NAQ         -1.1060     5.5400     5.9270 nd         1 1VC      -0.663100
     20 CAZ         -0.7430     6.0700     7.1220 ca         1 1VC       0.199400
     21 CAL         -0.5130     5.2650     8.2400 ca         1 1VC      -0.125000
     22 CAH         -0.1470     5.8460     9.4340 ca         1 1VC      -0.092000
     23 CAI         -0.0010     7.2240     9.5400 ca         1 1VC      -0.156000
     24 CAM         -0.2230     8.0370     8.4510 ca         1 1VC      -0.050000
     25 CBA         -0.5940     7.4690     7.2330 ca         1 1VC      -0.208600
     26 CAY         -0.8430     8.2880     6.0380 c          1 1VC       0.709100
     27 OAD         -0.7340     9.4990     6.0660 o          1 1VC      -0.620500
     28 NAS         -1.1960     7.6410     4.9020 ns         1 1VC      -0.471400
     29 H1          -0.5420     0.0030    -0.9380 ha         1 1VC       0.128500
     30 H2           1.9230    -0.0020    -0.9380 ha         1 1VC       0.132500
     31 H3           3.1570    -0.0000     1.1960 ha         1 1VC       0.132000
     32 H4           1.9250    -0.0040     3.3320 ha         1 1VC       0.132500
     33 H5          -0.5410     0.0020     3.3330 ha         1 1VC       0.128500
     34 H6          -2.5590    -0.4990     0.3120 hc         1 1VC       0.067200
     35 H7          -2.5580    -0.5080     2.0810 hc         1 1VC       0.067200
     36 H8          -2.2760     1.9900     0.3720 h1         1 1VC       0.112700
     37 H9          -6.5790     1.9770    -0.0680 h1         1 1VC       0.050367
     38 H10         -6.5900     0.4360    -0.9360 h1         1 1VC       0.050367
     39 H11         -6.6520     0.4550     0.8310 h1         1 1VC       0.050367
     40 H12         -2.1920     1.5500     3.2890 hn         1 1VC       0.323500
     41 H13         -2.5250     3.8810     4.5710 hc         1 1VC       0.081700
     42 H14         -0.8210     3.7380     4.1170 hc         1 1VC       0.081700
     43 H15         -0.9870     5.8440     2.8310 hc         1 1VC       0.081700
     44 H16         -2.6900     5.9880     3.2860 hc         1 1VC       0.081700
     45 H17         -0.6240     4.1890     8.1700 ha         1 1VC       0.147000
     46 H18          0.0310     5.2210    10.3010 ha         1 1VC       0.134000
     47 H19          0.2870     7.6620    10.4880 ha         1 1VC       0.136000
     48 H20         -0.1080     9.1110     8.5400 ha         1 1VC       0.155000
     49 H21         -1.3670     8.1640     4.0660 hn         1 1VC       0.340500
@<TRIPOS>BOND
     1    23    24 ar
     2    23    22 ar
     3    24    25 ar
     4    22    21 ar
     5    27    26 2
     6    25    26 1
     7    25    20 ar
     8    26    28 1
     9    21    20 ar
    10    20    19 1
    11    28    18 1
    12     4     5 ar
    13     4     3 ar
    14    19    18 2
    15    16    14 1
    16    16    17 1
    17    18    17 1
    18     5     6 ar
    19    15    14 2
    20     3     2 ar
    21    14    13 1
    22     6     7 1
    23     6     1 ar
    24    13     8 1
    25     2     1 ar
    26     7     8 1
    27     8     9 1
    28    11     9 1
    29    11    12 1
    30     9    10 2
    31     1    29 1
    32     2    30 1
    33     3    31 1
    34     4    32 1
    35     5    33 1
    36     7    34 1
    37     7    35 1
    38     8    36 1
    39    12    37 1
    40    12    38 1
    41    12    39 1
    42    13    40 1
    43    16    41 1
    44    16    42 1
    45    17    43 1
    46    17    44 1
    47    21    45 1
    48    22    46 1
    49    23    47 1
    50    24    48 1
    51    28    49 1
@<TRIPOS>SUBSTRUCTURE
     1 1VC         1 TEMP              0 ****  ****    0 ROOT
