@<TRIPOS>MOLECULE
1VC
   50    52     1     0     0
SMALL
bcc


@<TRIPOS>ATOM
      1 CD1          0.4700    -0.0380     2.3650 ca         1 1VC      -0.132500
      2 CE1          1.1270     0.9940     3.0310 ca         1 1VC      -0.117500
      3 CZ           0.5040     2.2330     3.1900 ca         1 1VC      -0.102000
      4 CE2         -0.7770     2.4390     2.6770 ca         1 1VC      -0.117500
      5 CD2         -1.4380     1.4080     2.0080 ca         1 1VC      -0.132500
      6 CG          -0.8180     0.1630     1.8530 ca         1 1VC      -0.151300
      7 CB          -1.5030    -0.9300     1.1130 c3         1 1VC      -0.049100
      8 CA          -2.4660    -1.7000     2.0320 c3         1 1VC       0.085500
      9 C           -3.1910    -2.7770     1.2420 c          1 1VC       0.630100
     10 O           -3.1720    -3.9920     1.4560 o          1 1VC      -0.543000
     11 OAT         -3.9250    -2.2630     0.2300 os         1 1VC      -0.404900
     12 CAA         -4.6460    -3.2030    -0.5880 c3         1 1VC       0.122700
     13 N           -1.7960    -2.2550     3.2500 ny         1 1VC      -0.706800
     14 CAU         -0.9590    -3.4870     3.0410 c          1 1VC       0.558100
     15 OAB         -0.2700    -3.5520     2.0340 o          1 1VC      -0.421100
     16 CAN         -0.9970    -4.5120     4.1480 c3         1 1VC      -0.141400
     17 CAO         -2.3040    -5.2720     4.2290 c3         1 1VC      -0.144700
     18 CAX         -3.3110    -4.6520     5.1890 cc         1 1VC       0.529900
     19 NAQ         -3.4550    -3.3340     5.2050 nd         1 1VC      -0.751100
     20 CAZ         -4.3960    -2.7580     6.0670 ca         1 1VC       0.180400
     21 CAL         -4.5640    -1.3550     6.1130 ca         1 1VC      -0.146000
     22 CAH         -5.5020    -0.7980     6.9730 ca         1 1VC      -0.073000
     23 CAI         -6.2900    -1.6050     7.8010 ca         1 1VC      -0.132000
     24 CAM         -6.1410    -2.9870     7.7730 ca         1 1VC      -0.042000
     25 CBA         -5.2000    -3.5670     6.9130 ca         1 1VC      -0.177600
     26 CAY         -5.0340    -5.0300     6.8770 c          1 1VC       0.710100
     27 OAD         -5.6680    -5.8510     7.5510 o          1 1VC      -0.562500
     28 NAS         -4.0490    -5.5180     5.9800 ns         1 1VC      -0.482400
     29 H1           0.9800    -1.0010     2.2040 ha         1 1VC       0.139500
     30 H2           2.1460     0.8370     3.4190 ha         1 1VC       0.153000
     31 H3           1.0280     3.0510     3.7090 ha         1 1VC       0.155000
     32 H4          -1.2640     3.4200     2.7880 ha         1 1VC       0.153000
     33 H5          -2.4390     1.5820     1.5850 ha         1 1VC       0.139500
     34 H6          -0.7540    -1.6370     0.6630 hc         1 1VC       0.104700
     35 H7          -2.1240    -0.5110     0.2710 hc         1 1VC       0.104700
     36 H8          -3.2520    -0.9710     2.4110 hx         1 1VC       0.129700
     37 H9          -5.1470    -2.5430    -1.3410 h1         1 1VC       0.073367
     38 H10         -5.3850    -3.7540     0.0400 h1         1 1VC       0.073367
     39 H11         -3.9290    -3.9110    -1.0670 h1         1 1VC       0.073367
     40 H12         -2.5380    -2.4890     3.9840 hn         1 1VC       0.495300
     41 H13         -0.1680    -5.2440     3.9170 hc         1 1VC       0.113700
     42 H14         -0.7490    -4.0190     5.1270 hc         1 1VC       0.113700
     43 H15         -2.0650    -6.3230     4.5540 hc         1 1VC       0.113200
     44 H16         -2.7920    -5.3420     3.2150 hc         1 1VC       0.113200
     45 H17         -3.9540    -0.7020     5.4730 ha         1 1VC       0.128000
     46 H18         -5.6270     0.2960     7.0050 ha         1 1VC       0.153000
     47 H19         -7.0270    -1.1450     8.4770 ha         1 1VC       0.161000
     48 H20         -6.7520    -3.6410     8.4200 ha         1 1VC       0.176000
     49 H21         -3.9070    -6.5040     5.9180 hn         1 1VC       0.352500
     50 H22         -1.1790    -1.5150     3.6150 hn         1 1VC       0.495300
@<TRIPOS>BOND
     1     1     2 ar  
     2     1     6 ar  
     3     1    29 1   
     4     2     3 ar  
     5     2    30 1   
     6     3     4 ar  
     7     3    31 1   
     8     4     5 ar  
     9     4    32 1   
    10     5     6 ar  
    11     5    33 1   
    12     6     7 1   
    13     7     8 1   
    14     7    34 1   
    15     7    35 1   
    16     8     9 1   
    17     8    13 1   
    18     8    36 1   
    19     9    10 2   
    20     9    11 1   
    21    11    12 1   
    22    12    37 1   
    23    12    38 1   
    24    12    39 1   
    25    13    14 1   
    26    13    40 1   
    27    13    50 1   
    28    14    15 2   
    29    14    16 1   
    30    16    17 1   
    31    16    41 1   
    32    16    42 1   
    33    17    18 1   
    34    17    43 1   
    35    17    44 1   
    36    18    19 2   
    37    18    28 1   
    38    19    20 1   
    39    20    21 ar  
    40    20    25 ar  
    41    21    22 ar  
    42    21    45 1   
    43    22    23 ar  
    44    22    46 1   
    45    23    24 ar  
    46    23    47 1   
    47    24    25 ar  
    48    24    48 1   
    49    25    26 1   
    50    26    27 2   
    51    26    28 1   
    52    28    49 1   
@<TRIPOS>SUBSTRUCTURE
     1 1VC         1 TEMP              0 ****  ****    0 ROOT
