@<TRIPOS>MOLECULE
1VC
   49    51     1     0     0
SMALL
bcc


@<TRIPOS>ATOM
      1 CD1          0.0000     0.0000     0.0000 ca         1 1VC      -0.095000
      2 CE1          1.3820     0.0000     0.0000 ca         1 1VC      -0.094500
      3 CZ           2.0740     0.0000     1.1960 ca         1 1VC      -0.096000
      4 CE2          1.3830    -0.0010     2.3940 ca         1 1VC      -0.094500
      5 CD2          0.0010    -0.0000     2.3950 ca         1 1VC      -0.095000
      6 CG          -0.6910     0.0070     1.1990 ca         1 1VC      -0.103300
      7 CB          -2.1970     0.0070     1.1990 c3         1 1VC       0.025900
      8 CA          -2.7070     1.4500     1.2070 c3         1 1VC      -0.024300
      9 C           -4.2090     1.4530     1.0840 c          1 1VC       0.680100
     10 O           -4.8860     1.9470     1.9550 o          1 1VC      -0.578000
     11 OAT         -4.7950     0.9080     0.0060 os         1 1VC      -0.414900
     12 CAA         -6.2460     0.9460    -0.0450 c3         1 1VC       0.269700
     13 N           -2.3190     2.0990     2.4610 ns         1 1VC      -0.169900
     14 CAU         -2.1910     3.4390     2.5160 c          1 1VC       0.582100
     15 OAB         -2.3970     4.1090     1.5250 o          1 1VC      -0.658100
     16 CAN         -1.7910     4.1060     3.8060 c3         1 1VC      -0.085400
     17 CAO         -1.7200     5.6200     3.5970 c3         1 1VC      -0.044700
     18 CAX         -1.3190     6.2870     4.8870 cc         1 1VC       0.292900
     19 NAQ         -1.1060     5.5400     5.9270 nd         1 1VC      -0.556100
     20 CAZ         -0.7430     6.0700     7.1220 ca         1 1VC       0.158400
     21 CAL         -0.5130     5.2650     8.2400 ca         1 1VC      -0.101000
     22 CAH         -0.1470     5.8460     9.4340 ca         1 1VC      -0.062000
     23 CAI         -0.0010     7.2240     9.5400 ca         1 1VC      -0.131000
     24 CAM         -0.2230     8.0370     8.4510 ca         1 1VC      -0.014000
     25 CBA         -0.5940     7.4690     7.2330 ca         1 1VC      -0.218600
     26 CAY         -0.8430     8.2880     6.0380 c          1 1VC       0.619100
     27 OAD         -0.7340     9.4990     6.0660 o          1 1VC      -0.662500
     28 NAS         -1.1960     7.6410     4.9020 ns         1 1VC      -0.007400
     29 H1          -0.5420     0.0030    -0.9380 ha         1 1VC       0.105000
     30 H2           1.9230    -0.0020    -0.9380 ha         1 1VC       0.104500
     31 H3           3.1570    -0.0000     1.1960 ha         1 1VC       0.104000
     32 H4           1.9250    -0.0040     3.3320 ha         1 1VC       0.104500
     33 H5          -0.5410     0.0020     3.3330 ha         1 1VC       0.105000
     34 H6          -2.5590    -0.4990     0.3120 hc         1 1VC       0.033200
     35 H7          -2.5580    -0.5080     2.0810 hc         1 1VC       0.033200
     36 H8          -2.2760     1.9900     0.3720 h1         1 1VC       0.080700
     37 H9          -6.5790     1.9770    -0.0680 h1         1 1VC       0.002367
     38 H10         -6.5900     0.4360    -0.9360 h1         1 1VC       0.002367
     39 H11         -6.6520     0.4550     0.8310 h1         1 1VC       0.002367
     40 H12         -2.1920     1.5500     3.2890 hn         1 1VC       0.182500
     41 H13         -2.5250     3.8810     4.5710 hc         1 1VC       0.045700
     42 H14         -0.8210     3.7380     4.1170 hc         1 1VC       0.045700
     43 H15         -0.9870     5.8440     2.8310 hc         1 1VC       0.043700
     44 H16         -2.6900     5.9880     3.2860 hc         1 1VC       0.043700
     45 H17         -0.6240     4.1890     8.1700 ha         1 1VC       0.117000
     46 H18          0.0310     5.2210    10.3010 ha         1 1VC       0.102000
     47 H19          0.2870     7.6620    10.4880 ha         1 1VC       0.108000
     48 H20         -0.1080     9.1110     8.5400 ha         1 1VC       0.124000
     49 H21         -1.3670     8.1640     4.0660 hn         1 1VC       0.185500
@<TRIPOS>BOND
     1     1     2 ar  
     2     1     6 ar  
     3     1    29 1   
     4     2     3 ar  
     5     2    30 1   
     6     3     4 ar  
     7     3    31 1   
     8     4     5 ar  
     9     4    32 1   
    10     5     6 ar  
    11     5    33 1   
    12     6     7 1   
    13     7     8 1   
    14     7    34 1   
    15     7    35 1   
    16     8     9 1   
    17     8    13 1   
    18     8    36 1   
    19     9    10 2   
    20     9    11 1   
    21    11    12 1   
    22    12    37 1   
    23    12    38 1   
    24    12    39 1   
    25    13    14 1   
    26    13    40 1   
    27    14    15 2   
    28    14    16 1   
    29    16    17 1   
    30    16    41 1   
    31    16    42 1   
    32    17    18 1   
    33    17    43 1   
    34    17    44 1   
    35    18    19 2   
    36    18    28 1   
    37    19    20 1   
    38    20    21 ar  
    39    20    25 ar  
    40    21    22 ar  
    41    21    45 1   
    42    22    23 ar  
    43    22    46 1   
    44    23    24 ar  
    45    23    47 1   
    46    24    25 ar  
    47    24    48 1   
    48    25    26 1   
    49    26    27 2   
    50    26    28 1   
    51    28    49 1   
@<TRIPOS>SUBSTRUCTURE
     1 1VC         1 TEMP              0 ****  ****    0 ROOT
