@<TRIPOS>MOLECULE
1VD
   51    54     1     0     0
SMALL
bcc


@<TRIPOS>ATOM
      1 CAM         -2.3580    -0.8520    -1.1670 cc         1 1VD      -0.244600
      2 CAF         -1.5490    -0.1870    -2.0930 cd         1 1VD       0.330200
      3 NAQ         -1.2510     1.1070    -1.6360 nd         1 1VD      -0.630000
      4 CAN         -1.8650     1.2410    -0.4560 cc         1 1VD       0.422400
      5 NBC         -2.5740     0.0570    -0.1050 na         1 1VD      -0.174000
      6 CAW         -3.3170    -0.1660     1.0500 ca         1 1VD       0.100800
      7 CAJ         -3.7520    -1.4710     1.3980 ca         1 1VD      -0.161500
      8 CAH         -4.4900    -1.6810     2.5530 ca         1 1VD      -0.073000
      9 CAI         -3.6590     0.9060     1.9130 ca         1 1VD      -0.161500
     10 CAG         -4.4010     0.6770     3.0630 ca         1 1VD      -0.073000
     11 CAV         -4.8260    -0.6150     3.3960 ca         1 1VD      -0.221300
     12 CBB         -5.5810    -0.8410     4.6650 c3         1 1VD       0.207800
     13 CAA         -4.8910    -1.8600     5.5620 c3         1 1VD      -0.131100
     14 NAS         -7.0070    -1.2850     4.3570 ny         1 1VD      -0.692800
     15 CAU         -7.8990    -0.1290     3.9540 c          1 1VD       0.550100
     16 OAB         -8.0490     0.7460     4.7920 o          1 1VD      -0.417100
     17 CAO         -8.4860    -0.2230     2.5770 c3         1 1VD      -0.142400
     18 CAP         -9.3950     0.9620     2.3090 c3         1 1VD      -0.117700
     19 CAX        -10.0100     0.9110     0.9180 cc         1 1VD       0.479900
     20 NAR         -9.7590    -0.1100     0.1210 nd         1 1VD      -0.646100
     21 CAZ        -10.3490    -0.1220    -1.1520 ca         1 1VD       0.168400
     22 CAK        -10.1070    -1.1990    -2.0350 ca         1 1VD      -0.122000
     23 CAD        -10.6950    -1.2060    -3.2930 ca         1 1VD      -0.087000
     24 CAE        -11.5270    -0.1610    -3.7080 ca         1 1VD      -0.133000
     25 CAL        -11.7790     0.9080    -2.8570 ca         1 1VD      -0.054000
     26 CBA        -11.1960     0.9340    -1.5840 ca         1 1VD      -0.177600
     27 CAY        -11.4580     2.0620    -0.6730 c          1 1VD       0.711100
     28 OAC        -12.1730     3.0440    -0.9210 o          1 1VD      -0.587500
     29 NAT        -10.8270     1.9950     0.5880 ns         1 1VD      -0.498400
     30 H1          -2.7880    -1.8510    -1.1830 h4         1 1VD       0.184000
     31 H2          -1.1640    -0.5490    -3.0480 h4         1 1VD       0.063100
     32 H3          -1.8330     2.1260     0.1880 h5         1 1VD       0.071100
     33 H4          -3.4930    -2.3330     0.7630 ha         1 1VD       0.164000
     34 H5          -4.7900    -2.7100     2.8100 ha         1 1VD       0.142000
     35 H6          -3.3410     1.9360     1.6810 ha         1 1VD       0.164000
     36 H7          -4.6420     1.5280     3.7210 ha         1 1VD       0.142000
     37 H8          -5.6850     0.1340     5.2370 hx         1 1VD       0.118700
     38 H9          -4.8060    -2.8600     5.0710 hc         1 1VD       0.079367
     39 H10         -5.4230    -1.9720     6.5380 hc         1 1VD       0.079367
     40 H11         -3.8550    -1.4870     5.7690 hc         1 1VD       0.079367
     41 H12         -6.9800    -1.9790     3.6030 hn         1 1VD       0.455800
     42 H13         -7.6510    -0.2510     1.8210 hc         1 1VD       0.121700
     43 H14         -9.0670    -1.1840     2.4810 hc         1 1VD       0.121700
     44 H15         -8.8090     1.9160     2.4130 hc         1 1VD       0.087200
     45 H16        -10.2230     0.9830     3.0690 hc         1 1VD       0.087200
     46 H17         -9.4570    -2.0300    -1.7250 ha         1 1VD       0.146000
     47 H18        -10.5030    -2.0500    -3.9770 ha         1 1VD       0.148000
     48 H19        -11.9830    -0.1860    -4.7100 ha         1 1VD       0.154000
     49 H20        -12.4320     1.7420    -3.1650 ha         1 1VD       0.169000
     50 H21        -10.9770     2.7310     1.2420 hn         1 1VD       0.340500
     51 HAS2        -7.3930    -1.7230     5.2010 hn         1 1VD       0.455800
@<TRIPOS>BOND
     1     1     2 2   
     2     1     5 1   
     3     1    30 1   
     4     2     3 1   
     5     2    31 1   
     6     3     4 2   
     7     4     5 1   
     8     4    32 1   
     9     5     6 1   
    10     6     7 ar  
    11     6     9 ar  
    12     7     8 ar  
    13     7    33 1   
    14     8    11 ar  
    15     8    34 1   
    16     9    10 ar  
    17     9    35 1   
    18    10    11 ar  
    19    10    36 1   
    20    11    12 1   
    21    12    13 1   
    22    12    14 1   
    23    12    37 1   
    24    13    38 1   
    25    13    39 1   
    26    13    40 1   
    27    14    15 1   
    28    14    41 1   
    29    14    51 1   
    30    15    16 2   
    31    15    17 1   
    32    17    18 1   
    33    17    42 1   
    34    17    43 1   
    35    18    19 1   
    36    18    44 1   
    37    18    45 1   
    38    19    20 2   
    39    19    29 1   
    40    20    21 1   
    41    21    22 ar  
    42    21    26 ar  
    43    22    23 ar  
    44    22    46 1   
    45    23    24 ar  
    46    23    47 1   
    47    24    25 ar  
    48    24    48 1   
    49    25    26 ar  
    50    25    49 1   
    51    26    27 1   
    52    27    28 2   
    53    27    29 1   
    54    29    50 1   
@<TRIPOS>SUBSTRUCTURE
     1 1VD         1 TEMP              0 ****  ****    0 ROOT
