@<TRIPOS>MOLECULE
molecule
   50    53     1     0     0
SMALL
bcc


@<TRIPOS>ATOM
      1 CAM          0.0000     0.0000     0.0000 cc         1 1VD      -0.270600
      2 CAF          1.3470     0.0000     0.0000 cd         1 1VD       0.318200
      3 NAQ          1.7650     0.0000     1.2750 nd         1 1VD      -0.687000
      4 CAN          0.7300     0.0000     2.0700 cc         1 1VD       0.402400
      5 NBC         -0.3970     0.0000     1.3110 na         1 1VD      -0.111000
      6 CAW         -1.7190     0.0050     1.7820 ca         1 1VD       0.017800
      7 CAJ         -2.7770     0.0050     0.8840 ca         1 1VD      -0.143500
      8 CAH         -4.0770     0.0090     1.3510 ca         1 1VD      -0.097500
      9 CAI         -1.9700     0.0050     3.1470 ca         1 1VD      -0.143500
     10 CAG         -3.2730     0.0100     3.6080 ca         1 1VD      -0.097500
     11 CAV         -4.3240     0.0150     2.7100 ca         1 1VD      -0.109300
     12 CBB         -5.7440     0.0210     3.2160 c3         1 1VD       0.163000
     13 CAA         -6.1370     1.4440     3.6180 c3         1 1VD      -0.105100
     14 NAS         -5.8510    -0.8620     4.3800 ns         1 1VD      -0.583900
     15 CAU         -7.0380    -1.4180     4.6980 c          1 1VD       0.656100
     16 OAB         -8.0170    -1.1860     4.0210 o          1 1VD      -0.619100
     17 CAO         -7.1480    -2.3260     5.8950 c3         1 1VD      -0.140400
     18 CAP         -8.5900    -2.8170     6.0310 c3         1 1VD      -0.102700
     19 CAX         -8.7010    -3.7260     7.2280 cd         1 1VD       0.497900
     20 NAR         -7.6330    -3.9520     7.9310 nc         1 1VD      -0.663100
     21 CAZ         -7.6560    -4.7570     9.0220 ca         1 1VD       0.197400
     22 CAK         -6.5070    -5.0000     9.7780 ca         1 1VD      -0.125000
     23 CAD         -6.5770    -5.8260    10.8770 ca         1 1VD      -0.091000
     24 CAE         -7.7760    -6.4210    11.2460 ca         1 1VD      -0.155000
     25 CAL         -8.9230    -6.1970    10.5160 ca         1 1VD      -0.050000
     26 CBA         -8.8740    -5.3650     9.4000 ca         1 1VD      -0.207600
     27 CAY        -10.0650    -5.0880     8.5810 c          1 1VD       0.707100
     28 OAC        -11.1450    -5.5800     8.8520 o          1 1VD      -0.620500
     29 NAT         -9.9140    -4.2630     7.5200 ns         1 1VD      -0.469400
     30 H1          -0.6450    -0.0000    -0.8700 h4         1 1VD       0.176000
     31 H2           1.9830    -0.0000    -0.8770 h4         1 1VD       0.044100
     32 H3           0.7630     0.0010     3.1530 h5         1 1VD       0.067100
     33 H4          -2.5840    -0.0000    -0.1820 ha         1 1VD       0.142500
     34 H5          -4.9040     0.0110     0.6500 ha         1 1VD       0.139500
     35 H6          -1.1460     0.0010     3.8510 ha         1 1VD       0.142500
     36 H7          -3.4700     0.0120     4.6730 ha         1 1VD       0.139500
     37 H8          -6.4070    -0.3300     2.4350 h1         1 1VD       0.085700
     38 H9          -5.7070     2.1490     2.9160 hc         1 1VD       0.047367
     39 H10         -5.7660     1.6540     4.6140 hc         1 1VD       0.047367
     40 H11         -7.2160     1.5380     3.6070 hc         1 1VD       0.047367
     41 H12         -5.0390    -1.0720     4.9260 hn         1 1VD       0.317500
     42 H13         -6.4880    -3.1750     5.7670 hc         1 1VD       0.080200
     43 H14         -6.8670    -1.7810     6.7880 hc         1 1VD       0.080200
     44 H15         -8.8720    -3.3610     5.1380 hc         1 1VD       0.080700
     45 H16         -9.2510    -1.9680     6.1600 hc         1 1VD       0.080700
     46 H17         -5.5660    -4.5420     9.5000 ha         1 1VD       0.146000
     47 H18         -5.6850    -6.0130    11.4620 ha         1 1VD       0.134000
     48 H19         -7.8100    -7.0680    12.1140 ha         1 1VD       0.137000
     49 H20         -9.8560    -6.6640    10.8080 ha         1 1VD       0.155000
     50 H21        -10.7040    -4.0450     6.9450 hn         1 1VD       0.340500
@<TRIPOS>BOND
     1     2     1 2
     2     2     3 1
     3     1     5 1
     4    24    25 ar
     5    24    23 ar
     6    25    26 ar
     7    23    22 ar
     8     3     4 2
     9    28    27 2
    10    26    27 1
    11    26    21 ar
    12     5     4 1
    13     5     6 1
    14    22    21 ar
    15    27    29 1
    16    21    20 1
    17     7     6 ar
    18     7     8 ar
    19     6     9 ar
    20    29    19 1
    21    20    19 2
    22     8    11 ar
    23    19    18 1
    24    17    18 1
    25    17    15 1
    26     9    10 ar
    27    15    14 1
    28    15    16 2
    29    11    10 ar
    30    11    12 1
    31    14    12 1
    32    12    13 1
    33     1    30 1
    34     2    31 1
    35     4    32 1
    36     7    33 1
    37     8    34 1
    38     9    35 1
    39    10    36 1
    40    12    37 1
    41    13    38 1
    42    13    39 1
    43    13    40 1
    44    14    41 1
    45    17    42 1
    46    17    43 1
    47    18    44 1
    48    18    45 1
    49    22    46 1
    50    23    47 1
    51    24    48 1
    52    25    49 1
    53    29    50 1
@<TRIPOS>SUBSTRUCTURE
     1 1VD         1 TEMP              0 ****  ****    0 ROOT
