@<TRIPOS>MOLECULE
1VD
   50    53     1     0     0
SMALL
bcc


@<TRIPOS>ATOM
      1 CAM          0.0000     0.0000     0.0000 cc         1 1VD      -0.446600
      2 CAF          1.3470     0.0000     0.0000 cd         1 1VD       0.332200
      3 NAQ          1.7650     0.0000     1.2750 nd         1 1VD      -0.609000
      4 CAN          0.7300     0.0000     2.0700 cc         1 1VD       0.208400
      5 NBC         -0.3970     0.0000     1.3110 na         1 1VD       0.416000
      6 CAW         -1.7190     0.0050     1.7820 ca         1 1VD      -0.161200
      7 CAJ         -2.7770     0.0050     0.8840 ca         1 1VD      -0.106000
      8 CAH         -4.0770     0.0090     1.3510 ca         1 1VD      -0.070500
      9 CAI         -1.9700     0.0050     3.1470 ca         1 1VD      -0.106000
     10 CAG         -3.2730     0.0100     3.6080 ca         1 1VD      -0.070500
     11 CAV         -4.3240     0.0150     2.7100 ca         1 1VD      -0.109300
     12 CBB         -5.7440     0.0210     3.2160 c3         1 1VD       0.079000
     13 CAA         -6.1370     1.4440     3.6180 c3         1 1VD      -0.013100
     14 NAS         -5.8510    -0.8620     4.3800 ns         1 1VD      -0.203900
     15 CAU         -7.0380    -1.4180     4.6980 c          1 1VD       0.574100
     16 OAB         -8.0170    -1.1860     4.0210 o          1 1VD      -0.656100
     17 CAO         -7.1480    -2.3260     5.8950 c3         1 1VD      -0.087400
     18 CAP         -8.5900    -2.8170     6.0310 c3         1 1VD      -0.043700
     19 CAX         -8.7010    -3.7260     7.2280 cc         1 1VD       0.289900
     20 NAR         -7.6330    -3.9520     7.9310 nd         1 1VD      -0.556100
     21 CAZ         -7.6560    -4.7570     9.0220 ca         1 1VD       0.155400
     22 CAK         -6.5070    -5.0000     9.7780 ca         1 1VD      -0.101000
     23 CAD         -6.5770    -5.8260    10.8770 ca         1 1VD      -0.062000
     24 CAE         -7.7760    -6.4210    11.2460 ca         1 1VD      -0.129000
     25 CAL         -8.9230    -6.1970    10.5160 ca         1 1VD      -0.013000
     26 CBA         -8.8740    -5.3650     9.4000 ca         1 1VD      -0.216600
     27 CAY        -10.0650    -5.0880     8.5810 c          1 1VD       0.617100
     28 OAC        -11.1450    -5.5800     8.8520 o          1 1VD      -0.661500
     29 NAT         -9.9140    -4.2630     7.5200 ns         1 1VD      -0.004400
     30 H1          -0.6450    -0.0000    -0.8700 h4         1 1VD       0.157000
     31 H2           1.9830    -0.0000    -0.8770 h4         1 1VD       0.004100
     32 H3           0.7630     0.0010     3.1530 h5         1 1VD       0.026100
     33 H4          -2.5840    -0.0000    -0.1820 ha         1 1VD       0.120000
     34 H5          -4.9040     0.0110     0.6500 ha         1 1VD       0.113500
     35 H6          -1.1460     0.0010     3.8510 ha         1 1VD       0.120000
     36 H7          -3.4700     0.0120     4.6730 ha         1 1VD       0.113500
     37 H8          -6.4070    -0.3300     2.4350 h1         1 1VD       0.060700
     38 H9          -5.7070     2.1490     2.9160 hc         1 1VD       0.014700
     39 H10         -5.7660     1.6540     4.6140 hc         1 1VD       0.014700
     40 H11         -7.2160     1.5380     3.6070 hc         1 1VD       0.014700
     41 H12         -5.0390    -1.0720     4.9260 hn         1 1VD       0.182500
     42 H13         -6.4880    -3.1750     5.7670 hc         1 1VD       0.044700
     43 H14         -6.8670    -1.7810     6.7880 hc         1 1VD       0.044700
     44 H15         -8.8720    -3.3610     5.1380 hc         1 1VD       0.042700
     45 H16         -9.2510    -1.9680     6.1600 hc         1 1VD       0.042700
     46 H17         -5.5660    -4.5420     9.5000 ha         1 1VD       0.117000
     47 H18         -5.6850    -6.0130    11.4620 ha         1 1VD       0.102000
     48 H19         -7.8100    -7.0680    12.1140 ha         1 1VD       0.108000
     49 H20         -9.8560    -6.6640    10.8080 ha         1 1VD       0.125000
     50 H21        -10.7040    -4.0450     6.9450 hn         1 1VD       0.184500
@<TRIPOS>BOND
     1     1     2 2   
     2     1     5 1   
     3     1    30 1   
     4     2     3 1   
     5     2    31 1   
     6     3     4 2   
     7     4     5 1   
     8     4    32 1   
     9     5     6 1   
    10     6     7 ar  
    11     6     9 ar  
    12     7     8 ar  
    13     7    33 1   
    14     8    11 ar  
    15     8    34 1   
    16     9    10 ar  
    17     9    35 1   
    18    10    11 ar  
    19    10    36 1   
    20    11    12 1   
    21    12    13 1   
    22    12    14 1   
    23    12    37 1   
    24    13    38 1   
    25    13    39 1   
    26    13    40 1   
    27    14    15 1   
    28    14    41 1   
    29    15    16 2   
    30    15    17 1   
    31    17    18 1   
    32    17    42 1   
    33    17    43 1   
    34    18    19 1   
    35    18    44 1   
    36    18    45 1   
    37    19    20 2   
    38    19    29 1   
    39    20    21 1   
    40    21    22 ar  
    41    21    26 ar  
    42    22    23 ar  
    43    22    46 1   
    44    23    24 ar  
    45    23    47 1   
    46    24    25 ar  
    47    24    48 1   
    48    25    26 ar  
    49    25    49 1   
    50    26    27 1   
    51    27    28 2   
    52    27    29 1   
    53    29    50 1   
@<TRIPOS>SUBSTRUCTURE
     1 1VD         1 TEMP              0 ****  ****    0 ROOT
