@<TRIPOS>MOLECULE
1VE
   38    39     1     0     0
SMALL
bcc


@<TRIPOS>ATOM
      1 C2          0.2860   -0.0930    0.1390 c2        1 1VE      0.040000
      2 C6          1.7780   -0.3020    0.0640 c2        1 1VE     -0.238000
      3 C7          2.5940   -0.0800   -1.1410 c2        1 1VE      0.351000
      4 C10         4.5570    0.7820    0.2570 c3        1 1VE     -0.120000
      5 C11         5.8770    1.4370   -0.0360 c2        1 1VE     -0.059000
      6 C12         6.6370    0.7360   -0.8650 c1        1 1VE     -0.285000
      7 C13         6.3190   -0.2530   -1.7120 c2        1 1VE      0.131000
      8 C15         8.4640   -1.2280   -1.9140 c3        1 1VE      0.039000
      9 C16         9.3190   -0.3510   -2.8430 c2        1 1VE      0.019000
     10 C19        13.0210   -0.7830   -3.1860 c2        1 1VE     -0.463000
     11 C21        11.0520    0.3330   -7.4500 c3        1 1VE     -0.131000
     12 C22        11.2450    0.0370   -6.0690 c1        1 1VE     -0.055000
     13 C23        11.4080   -0.2100   -4.9070 c1        1 1VE     -0.247000
     14 C26         4.8710   -0.3330   -1.9880 c2        1 1VE     -0.043000
     15 N1         -0.4810    0.4620   -0.8490 nh        1 1VE     -0.314000
     16 N3         -0.0700   -0.4680    1.4030 n2        1 1VE     -0.099000
     17 O4          1.0590   -0.8500    2.0200 os        1 1VE     -0.012000
     18 N5          2.1400   -0.7660    1.2710 n2        1 1VE      0.052000
     19 O8          2.0360   -0.0510   -2.2480 o         1 1VE     -0.295000
     20 C9          4.0480    0.1010   -0.9940 c2        1 1VE     -0.157000
     21 N17        10.7100   -0.6040   -2.6050 n2        1 1VE     -0.210000
     22 C18        11.6150   -0.5210   -3.5300 c2        1 1VE      0.239000
     23 C20        14.0670   -0.7900   -3.9870 c1        1 1VE      0.257000
     24 N24         8.7640    0.5140   -3.6230 n2        1 1VE     -0.225000
     25 H29         4.6360    0.0250    1.0840 hc        1 1VE      0.124500
     26 H30         3.8310    1.5740    0.5800 hc        1 1VE      0.124500
     27 H31         6.0870    2.4380    0.3500 ha        1 1VE      0.153000
     28 H33         8.6050   -0.8810   -0.8570 h1        1 1VE      0.126500
     29 H32         8.7590   -2.3070   -2.0310 h1        1 1VE      0.126500
     30 H34        13.2250   -1.0010   -2.1100 ha        1 1VE      0.219000
     31 H36        11.4270    1.3640   -7.6840 hc        1 1VE      0.110000
     32 H37         9.9630    0.2820   -7.7130 hc        1 1VE      0.110000
     33 H38         4.5150   -0.8110   -2.9100 ha        1 1VE      0.169000
     34 H28        -0.0950    0.4090   -1.7680 hn        1 1VE      0.236000
     35 H27        -1.4670    0.3660   -0.7710 hn        1 1VE      0.236000
     36 H35        11.6090   -0.4020   -8.0880 hc        1 1VE      0.110000
     37 H25         9.3700    1.0660   -4.1940 hn        1 1VE      0.150000
     38 O14         7.0830   -1.2310   -2.2800 os        1 1VE     -0.171000
@<TRIPOS>BOND
     1    1    2 1   
     2    1   15 1   
     3    1   16 1   
     4    2    3 1   
     5    2   18 1   
     6    3   19 1   
     7    3   20 1   
     8    4    5 1   
     9    4   20 1   
    10    4   25 1   
    11    4   26 1   
    12    5    6 1   
    13    5   27 1   
    14    6    7 1   
    15    7   14 1   
    16    7   38 1   
    17    8    9 1   
    18    8   28 1   
    19    8   29 1   
    20    8   38 1   
    21    9   21 1   
    22    9   24 1   
    23   10   22 1   
    24   10   23 1   
    25   10   30 1   
    26   11   12 1   
    27   11   31 1   
    28   11   32 1   
    29   11   36 1   
    30   12   13 1   
    31   13   22 1   
    32   14   20 1   
    33   14   33 1   
    34   15   34 1   
    35   15   35 1   
    36   16   17 1   
    37   17   18 1   
    38   21   22 1   
    39   24   37 1   
@<TRIPOS>SUBSTRUCTURE
     1 1VE         1 TEMP              0 ****  ****    0 ROOT
