@<TRIPOS>MOLECULE
1VF
   46    49     1     0     0
SMALL
bcc


@<TRIPOS>ATOM
      1 CAD          0.0820    -0.0060     0.0060 c3         1 1VF       0.078000
      2 CAC          1.6140     0.0560    -0.1840 c3         1 1VF       0.142800
      3 NAB          2.3230     0.3850     1.0430 n3         1 1VF      -0.732600
      4 CAA          3.7530     0.4630     0.8500 c3         1 1VF       0.157100
      5 CAG          1.7840     1.5660     1.7030 c3         1 1VF       0.142800
      6 CAF          0.2540     1.5070     1.8880 c3         1 1VF       0.078000
      7 NAE         -0.4680     1.1450     0.6840 n          1 1VF      -0.451800
      8 CAH         -1.2170     2.1130     0.0160 c          1 1VF       0.659700
      9 OAI         -1.3690     3.2510     0.5040 o          1 1VF      -0.588100
     10 CAJ         -1.9110     1.7420    -1.2530 ca         1 1VF      -0.113600
     11 CAO         -1.7380     2.5580    -2.3760 ca         1 1VF      -0.102000
     12 CAN         -2.4120     2.2660    -3.5600 ca         1 1VF      -0.101000
     13 CAK         -2.7770     0.6460    -1.3100 ca         1 1VF      -0.102000
     14 CAL         -3.4580     0.3580    -2.4900 ca         1 1VF      -0.101000
     15 CAM         -3.2700     1.1590    -3.6250 ca         1 1VF      -0.059800
     16 CAP         -3.9610     0.8460    -4.8790 cc         1 1VF       0.190900
     17 OAZ         -5.1670     0.2010    -4.6430 os         1 1VF      -0.224200
     18 CAY         -5.9200    -0.1510    -5.7530 ca         1 1VF       0.142100
     19 CAX         -7.1380    -0.7960    -5.4700 ca         1 1VF      -0.158000
     20 CAW         -7.9490    -1.1800    -6.5300 ca         1 1VF      -0.077000
     21 CAV         -7.5620    -0.9320    -7.8530 ca         1 1VF      -0.165000
     22 CAU         -6.3580    -0.2950    -8.1220 ca         1 1VF      -0.046000
     23 CAT         -5.5170     0.1060    -7.0720 ca         1 1VF      -0.214600
     24 CAR         -4.2380     0.7830    -7.3280 c          1 1VF       0.589900
     25 OAS         -3.8200     1.0400    -8.4660 o          1 1VF      -0.542100
     26 CAQ         -3.4950     1.1290    -6.1160 cd         1 1VF      -0.313200
     27 H1          -0.1700    -0.9130     0.6290 h1         1 1VF       0.067700
     28 H2          -0.3870    -0.1340    -1.0090 h1         1 1VF       0.067700
     29 H3           1.9580    -0.9630    -0.5160 h1         1 1VF       0.040700
     30 H4           1.8480     0.7860    -1.0140 h1         1 1VF       0.040700
     31 H6           4.2410     0.6270     1.8460 h1         1 1VF       0.034367
     32 H7           4.1130    -0.5110     0.4260 h1         1 1VF       0.034367
     33 H8           4.0660     1.2920     0.1580 h1         1 1VF       0.034367
     34 H9           2.0470     2.5130     1.1470 h1         1 1VF       0.040700
     35 H10          2.2500     1.6270     2.7260 h1         1 1VF       0.040700
     36 H11          0.0070     0.7310     2.6670 h1         1 1VF       0.067700
     37 H12         -0.0950     2.5130     2.2570 h1         1 1VF       0.067700
     38 H13         -1.0810     3.4390    -2.3140 ha         1 1VF       0.152500
     39 H14         -2.2770     2.9140    -4.4400 ha         1 1VF       0.150500
     40 H15         -2.9280     0.0150    -0.4200 ha         1 1VF       0.152500
     41 H16         -4.1490    -0.4990    -2.5360 ha         1 1VF       0.150500
     42 H17         -7.4280    -0.9800    -4.4260 ha         1 1VF       0.154000
     43 H18         -8.9060    -1.6850    -6.3260 ha         1 1VF       0.141000
     44 H19         -8.2170    -1.2440    -8.6800 ha         1 1VF       0.142000
     45 H20         -6.0390    -0.0910    -9.1580 ha         1 1VF       0.161000
     46 H21         -2.5250     1.6290    -6.2580 ha         1 1VF       0.169000
@<TRIPOS>BOND
     1     1     2 1   
     2     1     7 1   
     3     1    27 1   
     4     1    28 1   
     5     2     3 1   
     6     2    29 1   
     7     2    30 1   
     8     3     4 1   
     9     3     5 1   
    10     4    31 1   
    11     4    32 1   
    12     4    33 1   
    13     5     6 1   
    14     5    34 1   
    15     5    35 1   
    16     6     7 1   
    17     6    36 1   
    18     6    37 1   
    19     7     8 1   
    20     8     9 2   
    21     8    10 1   
    22    10    11 ar  
    23    10    13 ar  
    24    11    12 ar  
    25    11    38 1   
    26    12    15 ar  
    27    12    39 1   
    28    13    14 ar  
    29    13    40 1   
    30    14    15 ar  
    31    14    41 1   
    32    15    16 1   
    33    16    17 1   
    34    16    26 2   
    35    17    18 1   
    36    18    19 ar  
    37    18    23 ar  
    38    19    20 ar  
    39    19    42 1   
    40    20    21 ar  
    41    20    43 1   
    42    21    22 ar  
    43    21    44 1   
    44    22    23 ar  
    45    22    45 1   
    46    23    24 1   
    47    24    25 2   
    48    24    26 1   
    49    26    46 1   
@<TRIPOS>SUBSTRUCTURE
     1 1VF         1 TEMP              0 ****  ****    0 ROOT
