@<TRIPOS>MOLECULE
1VF
   46    49     1     0     0
SMALL
bcc


@<TRIPOS>ATOM
      1 CAD          0.0000     0.0000     0.0000 c3         1 1VF       0.037000
      2 CAC          1.5330     0.0000     0.0000 c3         1 1VF       0.138800
      3 NAB          2.0200     0.0000     1.3850 n3         1 1VF      -0.545600
      4 CAA          3.4780    -0.1730     1.4320 c3         1 1VF       0.189100
      5 CAG          1.6120     1.2210     2.0930 c3         1 1VF       0.138800
      6 CAF          0.0830     1.2720     2.1790 c3         1 1VF       0.037000
      7 NAE         -0.4660     1.1260     0.8230 n          1 1VF      -0.147800
      8 CAH         -1.3740     2.0020     0.3470 c          1 1VF       0.607700
      9 OAI         -1.7380     1.9290    -0.8110 o          1 1VF      -0.643100
     10 CAJ         -1.9250     3.0500     1.2310 ca         1 1VF      -0.129600
     11 CAO         -2.1520     4.3360     0.7340 ca         1 1VF      -0.072000
     12 CAN         -2.6660     5.3110     1.5580 ca         1 1VF      -0.081500
     13 CAK         -2.2250     2.7530     2.5630 ca         1 1VF      -0.072000
     14 CAL         -2.7400     3.7290     3.3870 ca         1 1VF      -0.081500
     15 CAM         -2.9620     5.0160     2.8910 ca         1 1VF      -0.059800
     16 CAP         -3.5130     6.0630     3.7760 cc         1 1VF       0.216900
     17 OAZ         -3.7200     7.2890     3.2720 os         1 1VF      -0.178200
     18 CAY         -4.2210     8.2990     4.0140 ca         1 1VF       0.161100
     19 CAX         -4.4220     9.5570     3.4590 ca         1 1VF      -0.142000
     20 CAW         -4.9340    10.5760     4.2340 ca         1 1VF      -0.040000
     21 CAV         -5.2520    10.3600     5.5670 ca         1 1VF      -0.145000
     22 CAU         -5.0600     9.1200     6.1350 ca         1 1VF       0.000000
     23 CAT         -4.5430     8.0810     5.3620 ca         1 1VF      -0.242600
     24 CAR         -4.3200     6.7370     5.9310 c          1 1VF       0.645900
     25 OAS         -4.5810     6.4910     7.0970 o          1 1VF      -0.582100
     26 CAQ         -3.7950     5.7450     5.0670 cd         1 1VF      -0.342200
     27 H1          -0.3630     0.1160    -1.0140 h1         1 1VF       0.040450
     28 H2          -0.3630    -0.9310     0.4190 h1         1 1VF       0.040450
     29 H3           1.8930    -0.8860    -0.5080 h1         1 1VF       0.016950
     30 H4           1.8930     0.8860    -0.5080 h1         1 1VF       0.016950
     31 H6           3.7480    -1.0980     0.9360 h1         1 1VF       0.002033
     32 H7           3.9560     0.6580     0.9290 h1         1 1VF       0.002033
     33 H8           3.8050    -0.2070     2.4640 h1         1 1VF       0.002033
     34 H9           2.0290     1.2140     3.0930 h1         1 1VF       0.016950
     35 H10          1.9710     2.0880     1.5520 h1         1 1VF       0.016950
     36 H11         -0.2730     0.4610     2.8040 h1         1 1VF       0.040450
     37 H12         -0.2260     2.2230     2.5960 h1         1 1VF       0.040450
     38 H13         -1.9230     4.5650    -0.3000 ha         1 1VF       0.123500
     39 H14         -2.8400     6.3080     1.1730 ha         1 1VF       0.121000
     40 H15         -2.0530     1.7550     2.9470 ha         1 1VF       0.123500
     41 H16         -2.9710     3.4990     4.4200 ha         1 1VF       0.121000
     42 H17         -4.1770     9.7370     2.4190 ha         1 1VF       0.119000
     43 H18         -5.0900    11.5550     3.7970 ha         1 1VF       0.105000
     44 H19         -5.6540    11.1700     6.1640 ha         1 1VF       0.111000
     45 H20         -5.3080     8.9530     7.1770 ha         1 1VF       0.125000
     46 H21         -3.7410     4.7150     5.3960 ha         1 1VF       0.150000
@<TRIPOS>BOND
     1     1     2 1   
     2     1     7 1   
     3     1    27 1   
     4     1    28 1   
     5     2     3 1   
     6     2    29 1   
     7     2    30 1   
     8     3     4 1   
     9     3     5 1   
    10     4    31 1   
    11     4    32 1   
    12     4    33 1   
    13     5     6 1   
    14     5    34 1   
    15     5    35 1   
    16     6     7 1   
    17     6    36 1   
    18     6    37 1   
    19     7     8 1   
    20     8     9 2   
    21     8    10 1   
    22    10    11 ar  
    23    10    13 ar  
    24    11    12 ar  
    25    11    38 1   
    26    12    15 ar  
    27    12    39 1   
    28    13    14 ar  
    29    13    40 1   
    30    14    15 ar  
    31    14    41 1   
    32    15    16 1   
    33    16    17 1   
    34    16    26 2   
    35    17    18 1   
    36    18    19 ar  
    37    18    23 ar  
    38    19    20 ar  
    39    19    42 1   
    40    20    21 ar  
    41    20    43 1   
    42    21    22 ar  
    43    21    44 1   
    44    22    23 ar  
    45    22    45 1   
    46    23    24 1   
    47    24    25 2   
    48    24    26 1   
    49    26    46 1   
@<TRIPOS>SUBSTRUCTURE
     1 1VF         1 TEMP              0 ****  ****    0 ROOT
