@<TRIPOS>MOLECULE
1VG
   32    35     1     0     0
SMALL
bcc


@<TRIPOS>ATOM
      1 CAC          0.0240     0.2020     0.0460 cc         1 1VG      -0.307200
      2 CAB          1.4810     0.3040    -0.0530 c          1 1VG       0.588900
      3 OAA          2.0660     0.4890    -1.1300 o          1 1VG      -0.539100
      4 CAK          2.1790     0.1680     1.2330 ca         1 1VG      -0.214600
      5 CAJ          3.5780     0.2500     1.3200 ca         1 1VG      -0.046000
      6 CAI          4.2120     0.1180     2.5490 ca         1 1VG      -0.163000
      7 CAH          3.4630    -0.0990     3.7110 ca         1 1VG      -0.076000
      8 CAG          2.0770    -0.1850     3.6570 ca         1 1VG      -0.158000
      9 CAF          1.4440    -0.0490     2.4080 ca         1 1VG       0.141100
     10 OAE          0.0600    -0.1470     2.4350 os         1 1VG      -0.225200
     11 CAD         -0.6040    -0.0140     1.2240 cd         1 1VG       0.184900
     12 CAL         -2.0540    -0.1260     1.3980 ca         1 1VG      -0.050800
     13 CAQ         -2.8490    -0.6020     0.3460 ca         1 1VG      -0.097500
     14 CAP         -4.2290    -0.6970     0.4980 ca         1 1VG      -0.102000
     15 CAM         -2.6580     0.2470     2.6070 ca         1 1VG      -0.097500
     16 CAN         -4.0390     0.1520     2.7620 ca         1 1VG      -0.102000
     17 CAO         -4.8320    -0.3220     1.7070 ca         1 1VG      -0.120500
     18 CAR         -6.2710    -0.4130     1.8850 cc         1 1VG       0.444000
     19 NAV         -7.1580    -1.2030     1.1200 na         1 1VG      -0.179400
     20 NAU         -8.3960    -1.0180     1.5950 nc         1 1VG      -0.188800
     21 NAT         -8.3180    -0.1890     2.5730 nd         1 1VG      -0.045000
     22 NAS         -7.0740     0.2170     2.8050 nd         1 1VG      -0.365000
     23 H1          -0.5430     0.3200    -0.8900 ha         1 1VG       0.168000
     24 H3           4.1530     0.4210     0.3950 ha         1 1VG       0.162000
     25 H4           5.3090     0.1830     2.6110 ha         1 1VG       0.143000
     26 H5           3.9750    -0.2030     4.6810 ha         1 1VG       0.142000
     27 H6           1.4740    -0.3550     4.5590 ha         1 1VG       0.155000
     28 H8          -2.3830    -0.9060    -0.6050 ha         1 1VG       0.154500
     29 H9          -4.8340    -1.0580    -0.3470 ha         1 1VG       0.151500
     30 H10         -2.0340     0.6150     3.4370 ha         1 1VG       0.154500
     31 H11         -4.5040     0.4540     3.7150 ha         1 1VG       0.151500
     32 H12         -6.9570    -1.8120     0.3620 hn         1 1VG       0.334700
@<TRIPOS>BOND
     1     1     2 1   
     2     1    11 2   
     3     1    23 1   
     4     2     3 2   
     5     2     4 1   
     6     4     5 ar  
     7     4     9 ar  
     8     5     6 ar  
     9     5    24 1   
    10     6     7 ar  
    11     6    25 1   
    12     7     8 ar  
    13     7    26 1   
    14     8     9 ar  
    15     8    27 1   
    16     9    10 1   
    17    10    11 1   
    18    11    12 1   
    19    12    13 ar  
    20    12    15 ar  
    21    13    14 ar  
    22    13    28 1   
    23    14    17 ar  
    24    14    29 1   
    25    15    16 ar  
    26    15    30 1   
    27    16    17 ar  
    28    16    31 1   
    29    17    18 1   
    30    18    19 1   
    31    18    22 2   
    32    19    20 1   
    33    19    32 1   
    34    20    21 2   
    35    21    22 1   
@<TRIPOS>SUBSTRUCTURE
     1 1VG         1 TEMP              0 ****  ****    0 ROOT
