@<TRIPOS>MOLECULE
molecule
   32    35     1     0     0
SMALL
bcc


@<TRIPOS>ATOM
      1 CAC          0.0000     0.0000     0.0000 cc         1 1VG      -0.330200
      2 CAB          1.4140     0.0000     0.0000 c          1 1VG       0.583900
      3 OAA          2.0480     0.0010    -1.0420 o          1 1VG      -0.542100
      4 CAK          2.0940     0.0000     1.3110 ca         1 1VG      -0.227600
      5 CAJ          3.4830     0.0010     1.4080 ca         1 1VG      -0.038000
      6 CAI          4.0790     0.0010     2.6500 ca         1 1VG      -0.163000
      7 CAH          3.3010    -0.0010     3.7990 ca         1 1VG      -0.074000
      8 CAG          1.9240    -0.0010     3.7160 ca         1 1VG      -0.156000
      9 CAF          1.3050    -0.0020     2.4730 ca         1 1VG       0.155100
     10 OAE         -0.0410    -0.0010     2.3700 os         1 1VG      -0.217200
     11 CAD         -0.6700     0.0040     1.1840 cd         1 1VG       0.199900
     12 CAL         -2.1460     0.0040     1.1640 ca         1 1VG      -0.050800
     13 CAQ         -2.8610    -0.0030     2.3660 ca         1 1VG      -0.094500
     14 CAP         -4.2370    -0.0030     2.3460 ca         1 1VG      -0.103500
     15 CAM         -2.8280     0.0160    -0.0550 ca         1 1VG      -0.094500
     16 CAN         -4.2040     0.0150    -0.0730 ca         1 1VG      -0.103500
     17 CAO         -4.9190     0.0030     1.1270 ca         1 1VG      -0.114500
     18 CAR         -6.3980     0.0020     1.1070 cd         1 1VG       0.405000
     19 NAV         -7.2230    -0.0110     2.1810 na         1 1VG      -0.119400
     20 NAU         -8.4320    -0.0060     1.7280 nd         1 1VG      -0.218800
     21 NAT         -8.3990     0.0070     0.4410 nc         1 1VG      -0.028000
     22 NAS         -7.1740     0.0180     0.0400 nc         1 1VG      -0.372000
     23 H1          -0.5460     0.0050    -0.9360 ha         1 1VG       0.170000
     24 H3           4.0920     0.0020     0.5120 ha         1 1VG       0.160000
     25 H4           5.1590     0.0010     2.7310 ha         1 1VG       0.141000
     26 H5           3.7800    -0.0000     4.7700 ha         1 1VG       0.140000
     27 H6           1.3270    -0.0030     4.6200 ha         1 1VG       0.146000
     28 H8          -2.3330    -0.0080     3.3110 ha         1 1VG       0.154000
     29 H9          -4.7920    -0.0110     3.2760 ha         1 1VG       0.147000
     30 H10         -2.2740     0.0260    -0.9860 ha         1 1VG       0.154000
     31 H11         -4.7330     0.0220    -1.0180 ha         1 1VG       0.147000
     32 H12         -6.9490    -0.0200     3.1430 hn         1 1VG       0.344700
@<TRIPOS>BOND
     1    21    20 2   
     2    21    22 1   
     3    20    19 1   
     4    22    18 2   
     5    19    18 1   
     6    18    17 1   
     7    17    16 ar  
     8    17    14 ar  
     9    16    15 ar  
    10    14    13 ar  
    11    15    12 ar  
    12    13    12 ar  
    13    12    11 1   
    14    11    10 1   
    15    11     1 2   
    16    10     9 1   
    17     1     2 1   
    18     9     8 ar  
    19     9     4 ar  
    20     8     7 ar  
    21     2     4 1   
    22     2     3 2   
    23     4     5 ar  
    24     7     6 ar  
    25     5     6 ar  
    26     1    23 1   
    27     5    24 1   
    28     6    25 1   
    29     7    26 1   
    30     8    27 1   
    31    13    28 1   
    32    14    29 1   
    33    15    30 1   
    34    16    31 1   
    35    19    32 1   
@<TRIPOS>SUBSTRUCTURE
     1 1VG         1 TEMP              0 ****  ****    0 ROOT
