@<TRIPOS>MOLECULE
1VG
   32    35     1     0     0
SMALL
bcc


@<TRIPOS>ATOM
      1 CAC         0.0870   -0.2680   -0.0940 cc        1 1VG     -0.304200
      2 CAB         1.5500   -0.2890   -0.0670 c         1 1VG      0.588900
      3 OAA         2.2350   -0.4610   -1.0840 o         1 1VG     -0.537100
      4 CAK         2.1260   -0.0890    1.2710 ca        1 1VG     -0.214600
      5 CAJ         3.5140   -0.0850    1.4780 ca        1 1VG     -0.045000
      6 CAI         4.0330    0.1070    2.7520 ca        1 1VG     -0.163000
      7 CAH         3.1750    0.2980    3.8420 ca        1 1VG     -0.076000
      8 CAG         1.7970    0.2990    3.6690 ca        1 1VG     -0.159000
      9 CAF         1.2810    0.1030    2.3750 ca        1 1VG      0.141100
     10 OAE        -0.1030    0.1170    2.2830 os        1 1VG     -0.227200
     11 CAD        -0.6510   -0.0720    1.0210 cd        1 1VG      0.183900
     12 CAL        -2.1150   -0.0400    1.0690 ca        1 1VG     -0.050800
     13 CAQ        -2.7970   -0.4330    2.2300 ca        1 1VG     -0.098000
     14 CAP        -4.1880   -0.4170    2.2660 ca        1 1VG     -0.102000
     15 CAM        -2.8440    0.3750   -0.0530 ca        1 1VG     -0.098000
     16 CAN        -4.2360    0.3920   -0.0200 ca        1 1VG     -0.102000
     17 CAO        -4.9160   -0.0030    1.1410 ca        1 1VG     -0.121500
     18 CAR        -6.3690    0.0200    1.1570 cc        1 1VG      0.444000
     19 NAV        -7.1890    0.0470    2.3070 na        1 1VG     -0.179400
     20 NAU        -8.4670    0.0680    1.9070 nc        1 1VG     -0.189800
     21 NAT        -8.4720    0.0540    0.6220 nd        1 1VG     -0.044000
     22 NAS        -7.2490    0.0260    0.1030 nd        1 1VG     -0.364000
     23 H1         -0.3900   -0.4310   -1.0720 ha        1 1VG      0.170000
     24 H3          4.1760   -0.2370    0.6090 ha        1 1VG      0.162000
     25 H4          5.1220    0.1090    2.9090 ha        1 1VG      0.144000
     26 H5          3.5950    0.4500    4.8480 ha        1 1VG      0.141000
     27 H6          1.1100    0.4490    4.5130 ha        1 1VG      0.154000
     28 H8         -2.2250   -0.7550    3.1150 ha        1 1VG      0.154500
     29 H9         -4.7020   -0.7460    3.1810 ha        1 1VG      0.151500
     30 H10        -2.3180    0.6950   -0.9670 ha        1 1VG      0.154500
     31 H11        -4.8010    0.7160   -0.9100 ha        1 1VG      0.151500
     32 H12        -6.9230    0.0620    3.2640 hn        1 1VG      0.334700
@<TRIPOS>BOND
     1    1    2 1   
     2    1   11 2   
     3    1   23 1   
     4    2    3 2   
     5    2    4 1   
     6    4    5 ar  
     7    4    9 ar  
     8    5    6 ar  
     9    5   24 1   
    10    6    7 ar  
    11    6   25 1   
    12    7    8 ar  
    13    7   26 1   
    14    8    9 ar  
    15    8   27 1   
    16    9   10 1   
    17   10   11 1   
    18   11   12 1   
    19   12   13 ar  
    20   12   15 ar  
    21   13   14 ar  
    22   13   28 1   
    23   14   17 ar  
    24   14   29 1   
    25   15   16 ar  
    26   15   30 1   
    27   16   17 ar  
    28   16   31 1   
    29   17   18 1   
    30   18   19 1   
    31   18   22 2   
    32   19   20 1   
    33   19   32 1   
    34   20   21 2   
    35   21   22 1   
@<TRIPOS>SUBSTRUCTURE
     1 1VG         1 TEMP              0 ****  ****    0 ROOT
