@<TRIPOS>MOLECULE
molecule
   60    63     1     0     0
SMALL
bcc


@<TRIPOS>ATOM
      1 CAA          0.0000     0.0000     0.0000 c3         1 1VI       0.128700
      2 OAJ          1.4290     0.0000     0.0000 os         1 1VI      -0.329900
      3 CAK          2.0470     0.0000     1.2110 ca         1 1VI       0.105100
      4 CAL          1.2920    -0.0060     2.3740 ca         1 1VI      -0.180000
      5 CAM          1.9190    -0.0120     3.6050 ca         1 1VI      -0.185000
      6 CAN          3.3040    -0.0120     3.6770 ca         1 1VI       0.108100
      7 OAC          3.9210    -0.0180     4.8890 os         1 1VI      -0.329900
      8 CAB          3.0820    -0.0250     6.0450 c3         1 1VI       0.129700
      9 CAO          4.0590    -0.0050     2.5140 ca         1 1VI      -0.121000
     10 CAQ          3.4310     0.0000     1.2840 ca         1 1VI      -0.082300
     11 CAR          4.2520     0.0000     0.0190 c3         1 1VI      -0.010100
     12 CAS          4.4240     1.4370    -0.4770 c3         1 1VI      -0.153400
     13 CAT          5.2450     1.4380    -1.7410 c          1 1VI       0.644100
     14 OAP          5.6530     0.3910    -2.2000 o          1 1VI      -0.529100
     15 NBC          5.5270     2.6000    -2.3610 ns         1 1VI      -0.557400
     16 CBG          6.3730     2.6120    -3.4700 ca         1 1VI       0.560200
     17 CBF          6.7410     3.8220    -4.0380 ca         1 1VI      -0.301300
     18 NBH          6.8200     1.4670    -3.9650 nb         1 1VI      -0.681000
     19 CBI          7.6230     1.4240    -5.0120 ca         1 1VI       0.455200
     20 CBD          8.0340     2.5770    -5.6390 ca         1 1VI      -0.272300
     21 CBE          7.5920     3.8160    -5.1500 ca         1 1VI       0.047000
     22 CBB          8.0110     5.0770    -5.7880 cc         1 1VI      -0.177600
     23 NBA          7.2060     6.1590    -6.0950 na         1 1VI      -0.270900
     24 CAZ          8.0030     7.1010    -6.6720 cc         1 1VI       0.525800
     25 SAV          7.4660     8.6770    -7.2490 ss         1 1VI      -0.302400
     26 CAU          9.0360     9.3380    -7.8630 c3         1 1VI      -0.001000
     27 NAY          9.2340     6.6500    -6.7280 nd         1 1VI      -0.699000
     28 CAX          9.2880     5.4150    -6.1940 cd         1 1VI       0.407800
     29 CAW         10.4980     4.5700    -6.0680 ca         1 1VI      -0.126500
     30 CAE         10.6520     3.7280    -4.9660 ca         1 1VI      -0.083500
     31 CAF         11.7770     2.9390    -4.8550 ca         1 1VI      -0.172500
     32 CAG         12.7560     2.9820    -5.8350 ca         1 1VI       0.134900
     33 FAD         13.8570     2.2080    -5.7220 f          1 1VI      -0.141900
     34 CAH         12.6080     3.8170    -6.9320 ca         1 1VI      -0.172500
     35 CAI         11.4850     4.6090    -7.0520 ca         1 1VI      -0.083500
     36 H1          -0.3610     0.0020    -1.0210 h1         1 1VI       0.040367
     37 H2          -0.3610    -0.8850     0.5090 h1         1 1VI       0.040367
     38 H3          -0.3610     0.8840     0.5120 h1         1 1VI       0.040367
     39 H4           0.2100    -0.0060     2.3170 ha         1 1VI       0.136000
     40 H5           1.3290    -0.0170     4.5130 ha         1 1VI       0.136000
     41 H6           3.6960    -0.0300     6.9380 h1         1 1VI       0.040033
     42 H7           2.4570    -0.9100     6.0330 h1         1 1VI       0.040033
     43 H8           2.4560     0.8590     6.0430 h1         1 1VI       0.040033
     44 H9           5.1410    -0.0050     2.5700 ha         1 1VI       0.151000
     45 H10          5.2250    -0.4310     0.2200 hc         1 1VI       0.072200
     46 H11          3.7470    -0.5850    -0.7390 hc         1 1VI       0.072200
     47 H12          3.4510     1.8680    -0.6780 hc         1 1VI       0.064700
     48 H13          4.9290     2.0230     0.2820 hc         1 1VI       0.064700
     49 H14          5.1060     3.4510    -2.0430 hn         1 1VI       0.328500
     50 H15          6.3760     4.7560    -3.6280 ha         1 1VI       0.136000
     51 H16          7.9630     0.4640    -5.3840 h4         1 1VI       0.034100
     52 H17          8.6930     2.5300    -6.4980 ha         1 1VI       0.154000
     53 H18          6.2060     6.1790    -6.0550 hn         1 1VI       0.311700
     54 H19          9.7540     9.3750    -7.0520 h1         1 1VI       0.074700
     55 H20          8.8800    10.3370    -8.2520 h1         1 1VI       0.074700
     56 H21          9.4140     8.6980    -8.6500 h1         1 1VI       0.074700
     57 H23          9.8870     3.6940    -4.1980 ha         1 1VI       0.148500
     58 H24         11.8970     2.2850    -3.9990 ha         1 1VI       0.147000
     59 H25         13.3750     3.8470    -7.6960 ha         1 1VI       0.147000
     60 H26         11.3700     5.2610    -7.9090 ha         1 1VI       0.148500
@<TRIPOS>BOND
     1     8     7 1   
     2     7     6 1   
     3     5     6 ar  
     4     5     4 ar  
     5     6     9 ar  
     6     4     3 ar  
     7     9    10 ar  
     8     3    10 ar  
     9     3     2 1   
    10    10    11 1   
    11    18    19 ar  
    12    18    16 ar  
    13    12    11 1   
    14    12    13 1   
    15     2     1 1   
    16    15    16 1   
    17    15    13 1   
    18    19    20 ar  
    19    16    17 ar  
    20    13    14 2   
    21    20    21 ar  
    22    17    21 ar  
    23    21    22 1   
    24    33    32 1   
    25    31    32 ar  
    26    31    30 ar  
    27    32    34 ar  
    28    30    29 ar  
    29    22    28 2   
    30    22    23 1   
    31    34    35 ar  
    32    29    35 ar  
    33    29    28 1   
    34    28    27 1   
    35    23    24 1   
    36    27    24 2   
    37    24    25 1   
    38    25    26 1   
    39     1    36 1   
    40     1    37 1   
    41     1    38 1   
    42     4    39 1   
    43     5    40 1   
    44     8    41 1   
    45     8    42 1   
    46     8    43 1   
    47     9    44 1   
    48    11    45 1   
    49    11    46 1   
    50    12    47 1   
    51    12    48 1   
    52    15    49 1   
    53    17    50 1   
    54    19    51 1   
    55    20    52 1   
    56    23    53 1   
    57    26    54 1   
    58    26    55 1   
    59    26    56 1   
    60    30    57 1   
    61    31    58 1   
    62    34    59 1   
    63    35    60 1   
@<TRIPOS>SUBSTRUCTURE
     1 1VI         1 TEMP              0 ****  ****    0 ROOT
