@<TRIPOS>MOLECULE
1VI
   60    63     1     0     0
SMALL
bcc


@<TRIPOS>ATOM
      1 CAA         -0.1600    -1.7630     1.4790 c3         1 1VI       0.113700
      2 OAJ          0.0790    -0.4300     1.9190 os         1 1VI      -0.335900
      3 CAK          1.3750    -0.1460     2.3180 ca         1 1VI       0.088100
      4 CAL          2.3400    -1.1290     2.5750 ca         1 1VI      -0.165000
      5 CAM          3.6100    -0.7600     2.9980 ca         1 1VI      -0.123000
      6 CAN          3.9130     0.6020     3.1670 ca         1 1VI       0.096100
      7 OAC          5.2030     0.8600     3.5950 os         1 1VI      -0.326900
      8 CAB          5.5540     2.2310     3.7380 c3         1 1VI       0.113700
      9 CAO          2.9530     1.5870     2.9110 ca         1 1VI      -0.170000
     10 CAQ          1.6740     1.2220     2.4820 ca         1 1VI      -0.075300
     11 CAR          0.6570     2.2670     2.1870 c3         1 1VI      -0.019100
     12 CAS         -0.4060     2.3180     3.2680 c3         1 1VI      -0.149400
     13 CAT         -1.3990     3.4330     2.9910 c          1 1VI       0.670100
     14 OAP         -1.1730     4.3280     2.1570 o          1 1VI      -0.598100
     15 NBC         -2.5580     3.4060     3.7650 ns         1 1VI      -0.552400
     16 CBG         -3.6570     4.2810     3.6320 ca         1 1VI       0.530200
     17 CBF         -3.5070     5.5810     3.0770 ca         1 1VI      -0.261300
     18 NBH         -4.8690     3.8270     4.0980 nb         1 1VI      -0.715000
     19 CBI         -5.9150     4.6570     4.0050 ca         1 1VI       0.425200
     20 CBD         -5.8640     5.9480     3.4530 ca         1 1VI      -0.259300
     21 CBE         -4.6310     6.4140     2.9790 ca         1 1VI       0.046000
     22 CBB         -4.5200     7.7270     2.3760 cc         1 1VI      -0.160600
     23 NBA         -3.6400     7.9960     1.3170 na         1 1VI      -0.283900
     24 CAZ         -3.8220     9.3320     0.9500 cc         1 1VI       0.484800
     25 SAV         -2.9390    10.0490    -0.3100 ss         1 1VI      -0.229400
     26 CAU         -3.4800    11.7150    -0.3040 c3         1 1VI      -0.048000
     27 NAY         -4.7680     9.9240     1.7290 nd         1 1VI      -0.678000
     28 CAX         -5.2100     8.9460     2.6230 cd         1 1VI       0.393800
     29 CAW         -6.2090     9.2220     3.6430 ca         1 1VI      -0.126500
     30 CAE         -6.0720     8.6920     4.9340 ca         1 1VI      -0.086000
     31 CAF         -7.0120     8.9690     5.9190 ca         1 1VI      -0.172000
     32 CAG         -8.1120     9.7920     5.6160 ca         1 1VI       0.125900
     33 FAD         -9.0340    10.0660     6.5700 f          1 1VI      -0.141900
     34 CAH         -8.2560    10.3330     4.3250 ca         1 1VI      -0.172000
     35 CAI         -7.3050    10.0480     3.3510 ca         1 1VI      -0.086000
     36 H1          -0.0990    -2.4730     2.3400 h1         1 1VI       0.044700
     37 H2          -1.2040    -1.7220     1.0770 h1         1 1VI       0.044700
     38 H3           0.5600    -2.0560     0.6780 h1         1 1VI       0.044700
     39 H4           2.1050    -2.1950     2.4450 ha         1 1VI       0.141000
     40 H5           4.3810    -1.5160     3.2040 ha         1 1VI       0.152000
     41 H6           4.9200     2.7210     4.5160 h1         1 1VI       0.044367
     42 H7           6.6240     2.1920     4.0680 h1         1 1VI       0.044367
     43 H8           5.4630     2.7670     2.7630 h1         1 1VI       0.044367
     44 H9           3.1900     2.6530     3.0380 ha         1 1VI       0.143000
     45 H10          1.1420     3.2750     2.0900 hc         1 1VI       0.069700
     46 H11          0.1650     2.0380     1.2020 hc         1 1VI       0.069700
     47 H12          0.0680     2.5110     4.2680 hc         1 1VI       0.078200
     48 H13         -0.9270     1.3250     3.3140 hc         1 1VI       0.078200
     49 H14         -2.7130     2.5860     4.3140 hn         1 1VI       0.331500
     50 H15         -2.5190     5.9280     2.7370 ha         1 1VI       0.174000
     51 H16         -6.8680     4.2520     4.3950 h4         1 1VI       0.027100
     52 H17         -6.7640     6.5740     3.4000 ha         1 1VI       0.161000
     53 H18         -3.0190     7.3460     0.9050 hn         1 1VI       0.320700
     54 H19         -2.8950    12.2080    -1.1160 h1         1 1VI       0.079033
     55 H20         -3.2730    12.2240     0.6640 h1         1 1VI       0.079033
     56 H21         -4.5670    11.8070    -0.5220 h1         1 1VI       0.079033
     57 H23         -5.2090     8.0490     5.1680 ha         1 1VI       0.149500
     58 H24         -6.9040     8.5560     6.9320 ha         1 1VI       0.149000
     59 H25         -9.1160    10.9780     4.0980 ha         1 1VI       0.149000
     60 H26         -7.4130    10.4790     2.3440 ha         1 1VI       0.149500
@<TRIPOS>BOND
     1     1     2 1   
     2     1    36 1   
     3     1    37 1   
     4     1    38 1   
     5     2     3 1   
     6     3     4 ar  
     7     3    10 ar  
     8     4     5 ar  
     9     4    39 1   
    10     5     6 ar  
    11     5    40 1   
    12     6     7 1   
    13     6     9 ar  
    14     7     8 1   
    15     8    41 1   
    16     8    42 1   
    17     8    43 1   
    18     9    10 ar  
    19     9    44 1   
    20    10    11 1   
    21    11    12 1   
    22    11    45 1   
    23    11    46 1   
    24    12    13 1   
    25    12    47 1   
    26    12    48 1   
    27    13    14 2   
    28    13    15 1   
    29    15    16 1   
    30    15    49 1   
    31    16    17 ar  
    32    16    18 ar  
    33    17    21 ar  
    34    17    50 1   
    35    18    19 ar  
    36    19    20 ar  
    37    19    51 1   
    38    20    21 ar  
    39    20    52 1   
    40    21    22 1   
    41    22    23 1   
    42    22    28 2   
    43    23    24 1   
    44    23    53 1   
    45    24    25 1   
    46    24    27 2   
    47    25    26 1   
    48    26    54 1   
    49    26    55 1   
    50    26    56 1   
    51    27    28 1   
    52    28    29 1   
    53    29    30 ar  
    54    29    35 ar  
    55    30    31 ar  
    56    30    57 1   
    57    31    32 ar  
    58    31    58 1   
    59    32    33 1   
    60    32    34 ar  
    61    34    35 ar  
    62    34    59 1   
    63    35    60 1   
@<TRIPOS>SUBSTRUCTURE
     1 1VI         1 TEMP              0 ****  ****    0 ROOT
