@<TRIPOS>MOLECULE
1VI
   60    63     1     0     0
SMALL
bcc


@<TRIPOS>ATOM
      1 CAA          0.0000     0.0000     0.0000 c3         1 1VI       0.242700
      2 OAJ          1.4290     0.0000     0.0000 os         1 1VI      -0.306900
      3 CAK          2.0470     0.0000     1.2110 ca         1 1VI       0.113100
      4 CAL          1.2920    -0.0060     2.3740 ca         1 1VI      -0.164000
      5 CAM          1.9190    -0.0120     3.6050 ca         1 1VI      -0.170000
      6 CAN          3.3040    -0.0120     3.6770 ca         1 1VI       0.114100
      7 OAC          3.9210    -0.0180     4.8890 os         1 1VI      -0.307900
      8 CAB          3.0820    -0.0250     6.0450 c3         1 1VI       0.244700
      9 CAO          4.0590    -0.0050     2.5140 ca         1 1VI      -0.101000
     10 CAQ          3.4310     0.0000     1.2840 ca         1 1VI      -0.093300
     11 CAR          4.2520     0.0000     0.0190 c3         1 1VI       0.050900
     12 CAS          4.4240     1.4370    -0.4770 c3         1 1VI      -0.097400
     13 CAT          5.2450     1.4380    -1.7410 c          1 1VI       0.542100
     14 OAP          5.6530     0.3910    -2.2000 o          1 1VI      -0.567100
     15 NBC          5.5270     2.6000    -2.3610 ns         1 1VI      -0.123400
     16 CBG          6.3730     2.6120    -3.4700 ca         1 1VI       0.374200
     17 CBF          6.7410     3.8220    -4.0380 ca         1 1VI      -0.285300
     18 NBH          6.8200     1.4670    -3.9650 nb         1 1VI      -0.557000
     19 CBI          7.6230     1.4240    -5.0120 ca         1 1VI       0.438200
     20 CBD          8.0340     2.5770    -5.6390 ca         1 1VI      -0.248300
     21 CBE          7.5920     3.8160    -5.1500 ca         1 1VI       0.065000
     22 CBB          8.0110     5.0770    -5.7880 cc         1 1VI      -0.369600
     23 NBA          7.2060     6.1590    -6.0950 na         1 1VI       0.302100
     24 CAZ          8.0030     7.1010    -6.6720 cc         1 1VI       0.323800
     25 SAV          7.4660     8.6770    -7.2490 ss         1 1VI      -0.404400
     26 CAU          9.0360     9.3380    -7.8630 c3         1 1VI       0.141000
     27 NAY          9.2340     6.6500    -6.7280 nd         1 1VI      -0.613000
     28 CAX          9.2880     5.4150    -6.1940 cd         1 1VI       0.391800
     29 CAW         10.4980     4.5700    -6.0680 ca         1 1VI      -0.121500
     30 CAE         10.6520     3.7280    -4.9660 ca         1 1VI      -0.064500
     31 CAF         11.7770     2.9390    -4.8550 ca         1 1VI      -0.136000
     32 CAG         12.7560     2.9820    -5.8350 ca         1 1VI       0.103900
     33 FAD         13.8570     2.2080    -5.7220 f          1 1VI      -0.129900
     34 CAH         12.6080     3.8170    -6.9320 ca         1 1VI      -0.136000
     35 CAI         11.4850     4.6090    -7.0520 ca         1 1VI      -0.064500
     36 H1          -0.3610     0.0020    -1.0210 h1         1 1VI      -0.003633
     37 H2          -0.3610    -0.8850     0.5090 h1         1 1VI      -0.003633
     38 H3          -0.3610     0.8840     0.5120 h1         1 1VI      -0.003633
     39 H4           0.2100    -0.0060     2.3170 ha         1 1VI       0.118000
     40 H5           1.3290    -0.0170     4.5130 ha         1 1VI       0.119000
     41 H6           3.6960    -0.0300     6.9380 h1         1 1VI      -0.003633
     42 H7           2.4570    -0.9100     6.0330 h1         1 1VI      -0.003633
     43 H8           2.4560     0.8590     6.0430 h1         1 1VI      -0.003633
     44 H9           5.1410    -0.0050     2.5700 ha         1 1VI       0.122000
     45 H10          5.2250    -0.4310     0.2200 hc         1 1VI       0.038700
     46 H11          3.7470    -0.5850    -0.7390 hc         1 1VI       0.038700
     47 H12          3.4510     1.8680    -0.6780 hc         1 1VI       0.031200
     48 H13          4.9290     2.0230     0.2820 hc         1 1VI       0.031200
     49 H14          5.1060     3.4510    -2.0430 hn         1 1VI       0.169500
     50 H15          6.3760     4.7560    -3.6280 ha         1 1VI       0.115000
     51 H16          7.9630     0.4640    -5.3840 h4         1 1VI      -0.013900
     52 H17          8.6930     2.5300    -6.4980 ha         1 1VI       0.131000
     53 H18          6.2060     6.1790    -6.0550 hn         1 1VI       0.130700
     54 H19          9.7540     9.3750    -7.0520 h1         1 1VI       0.041367
     55 H20          8.8800    10.3370    -8.2520 h1         1 1VI       0.041367
     56 H21          9.4140     8.6980    -8.6500 h1         1 1VI       0.041367
     57 H23          9.8870     3.6940    -4.1980 ha         1 1VI       0.119500
     58 H24         11.8970     2.2850    -3.9990 ha         1 1VI       0.119500
     59 H25         13.3750     3.8470    -7.6960 ha         1 1VI       0.119500
     60 H26         11.3700     5.2610    -7.9090 ha         1 1VI       0.119500
@<TRIPOS>BOND
     1     1     2 1   
     2     1    36 1   
     3     1    37 1   
     4     1    38 1   
     5     2     3 1   
     6     3     4 ar  
     7     3    10 ar  
     8     4     5 ar  
     9     4    39 1   
    10     5     6 ar  
    11     5    40 1   
    12     6     7 1   
    13     6     9 ar  
    14     7     8 1   
    15     8    41 1   
    16     8    42 1   
    17     8    43 1   
    18     9    10 ar  
    19     9    44 1   
    20    10    11 1   
    21    11    12 1   
    22    11    45 1   
    23    11    46 1   
    24    12    13 1   
    25    12    47 1   
    26    12    48 1   
    27    13    14 2   
    28    13    15 1   
    29    15    16 1   
    30    15    49 1   
    31    16    17 ar  
    32    16    18 ar  
    33    17    21 ar  
    34    17    50 1   
    35    18    19 ar  
    36    19    20 ar  
    37    19    51 1   
    38    20    21 ar  
    39    20    52 1   
    40    21    22 1   
    41    22    23 1   
    42    22    28 2   
    43    23    24 1   
    44    23    53 1   
    45    24    25 1   
    46    24    27 2   
    47    25    26 1   
    48    26    54 1   
    49    26    55 1   
    50    26    56 1   
    51    27    28 1   
    52    28    29 1   
    53    29    30 ar  
    54    29    35 ar  
    55    30    31 ar  
    56    30    57 1   
    57    31    32 ar  
    58    31    58 1   
    59    32    33 1   
    60    32    34 ar  
    61    34    35 ar  
    62    34    59 1   
    63    35    60 1   
@<TRIPOS>SUBSTRUCTURE
     1 1VI         1 TEMP              0 ****  ****    0 ROOT
