@<TRIPOS>MOLECULE
1VJ
   34    35     1     0     0
SMALL
bcc


@<TRIPOS>ATOM
      1 C1          0.6560    1.0640   -0.0320 c3        1 1VJ     -0.101100
      2 C2          1.8650    0.1620   -0.0040 c3        1 1VJ      0.139400
      3 C6          3.8110   -0.5530    3.0840 c3        1 1VJ      0.081400
      4 C8          5.8230   -0.3800    4.3340 ca        1 1VJ      0.111100
      5 C10         5.9230   -0.7780    6.7060 ca        1 1VJ     -0.103000
      6 C11         7.3130   -0.7140    6.6640 ca        1 1VJ     -0.106000
      7 C12         7.9630   -0.4790    5.4460 ca        1 1VJ     -0.132600
      8 C13         7.2260   -0.3280    4.2690 ca        1 1VJ     -0.096000
      9 C14         9.4380   -0.4140    5.3630 c         1 1VJ      0.527200
     10 C16        10.1340    0.4750    6.3050 cc        1 1VJ      0.103500
     11 O3          2.3280    0.1550    1.3610 os        1 1VJ     -0.441900
     12 C4          3.4360   -0.5990    1.6220 c         1 1VJ      0.631100
     13 O5          3.9640   -1.2300    0.7100 o         1 1VJ     -0.511000
     14 O7          5.1830   -0.1540    3.1260 os        1 1VJ     -0.309900
     15 C9          5.1650   -0.6040    5.5480 ca        1 1VJ     -0.172000
     16 O15        10.0840   -1.0580    4.5260 o         1 1VJ     -0.524100
     17 N17         9.6260    1.2090    7.3100 nd        1 1VJ     -0.273300
     18 O18        10.6170    1.8530    7.8900 os        1 1VJ      0.134600
     19 N19        11.8210    1.6200    7.3450 nd        1 1VJ     -0.444300
     20 C20        11.6160    0.7510    6.3090 cc        1 1VJ      0.509900
     21 N21        12.5090    0.2800    5.3930 nh        1 1VJ     -0.931500
     22 H22        -0.1410    0.6750    0.6460 hc        1 1VJ      0.049367
     23 H24         0.2610    1.1060   -1.0750 hc        1 1VJ      0.049367
     24 H23         0.9270    2.0950    0.2990 hc        1 1VJ      0.049367
     25 H25         1.6150   -0.8890   -0.3010 h1        1 1VJ      0.054200
     26 H26         2.6920    0.5430   -0.6590 h1        1 1VJ      0.054200
     27 H28         3.1870    0.2010    3.6330 h1        1 1VJ      0.075700
     28 H27         3.6740   -1.5780    3.5200 h1        1 1VJ      0.075700
     29 H30         5.4130   -0.9610    7.6650 ha        1 1VJ      0.143000
     30 H31         7.8930   -0.8550    7.5880 ha        1 1VJ      0.148000
     31 H32         7.7260   -0.1690    3.3010 ha        1 1VJ      0.168000
     32 H29         4.0680   -0.6410    5.6010 ha        1 1VJ      0.141000
     33 H34        13.4780    0.3630    5.5860 hn        1 1VJ      0.449300
     34 H33        12.2020   -0.4720    4.8160 hn        1 1VJ      0.449300
@<TRIPOS>BOND
     1    1    2 1   
     2    1   22 1   
     3    1   23 1   
     4    1   24 1   
     5    2   11 1   
     6    2   25 1   
     7    2   26 1   
     8    3   12 1   
     9    3   14 1   
    10    3   27 1   
    11    3   28 1   
    12    4    8 ar  
    13    4   14 1   
    14    4   15 ar  
    15    5    6 ar  
    16    5   15 ar  
    17    5   29 1   
    18    6    7 ar  
    19    6   30 1   
    20    7    8 ar  
    21    7    9 1   
    22    8   31 1   
    23    9   10 1   
    24    9   16 2   
    25   10   17 2   
    26   10   20 1   
    27   11   12 1   
    28   12   13 2   
    29   15   32 1   
    30   17   18 1   
    31   18   19 1   
    32   19   20 2   
    33   20   21 1   
    34   21   33 1   
    35   21   34 1   
@<TRIPOS>SUBSTRUCTURE
     1 1VJ         1 TEMP              0 ****  ****    0 ROOT
