@<TRIPOS>MOLECULE
1VK
   21    22     1     0     0
SMALL
bcc


@<TRIPOS>ATOM
      1 C2         -0.0210    0.2250   -0.0970 cc        1 1VK      0.507900
      2 C6          1.4840    0.2030   -0.0180 cc        1 1VK      0.105500
      3 C7          2.3840   -0.3030   -1.0670 c         1 1VK      0.528200
      4 C10         4.6390    0.2930   -1.8840 ca        1 1VK     -0.076000
      5 C11         6.0160    0.4080   -1.7100 ca        1 1VK     -0.139000
      6 C12         6.6020    0.0200   -0.5040 ca        1 1VK     -0.100000
      7 C13         5.8090   -0.4850    0.5260 ca        1 1VK     -0.139000
      8 C14         4.4290   -0.5940    0.3620 ca        1 1VK     -0.076000
      9 N1         -0.7610   -0.1480   -1.1790 nh        1 1VK     -0.931500
     10 N3         -0.4390    0.7720    1.0850 nd        1 1VK     -0.444300
     11 O4          0.6700    1.0600    1.7840 os        1 1VK      0.133600
     12 N5          1.7920    0.7460    1.1730 nd        1 1VK     -0.275300
     13 O8          1.9080   -0.7770   -2.1080 o         1 1VK     -0.534100
     14 C9          3.8380   -0.1960   -0.8430 ca        1 1VK     -0.165600
     15 H18         6.6410    0.8010   -2.5250 ha        1 1VK      0.140000
     16 H19         7.6900    0.1110   -0.3670 ha        1 1VK      0.137000
     17 H20         6.2710   -0.7980    1.4740 ha        1 1VK      0.140000
     18 H21         3.8160   -1.0020    1.1790 ha        1 1VK      0.146000
     19 H15        -1.7370   -0.2830   -1.0650 hn        1 1VK      0.448800
     20 H16        -0.2890   -0.6720   -1.8820 hn        1 1VK      0.448800
     21 H17         4.1710    0.5810   -2.8390 ha        1 1VK      0.146000
@<TRIPOS>BOND
     1    1    2 1
     2    1    9 1
     3    1   10 2
     4    2    3 1
     5    2   12 2
     6    3   13 2
     7    3   14 1
     8    4    5 ar
     9    4   14 ar
    10    4   21 1
    11    5    6 ar
    12    5   15 1
    13    6    7 ar
    14    6   16 1
    15    7    8 ar
    16    7   17 1
    17    8   14 ar
    18    8   18 1
    19    9   19 1
    20    9   20 1
    21   10   11 1
    22   11   12 1
@<TRIPOS>SUBSTRUCTURE
     1 1VK         1 TEMP              0 ****  ****    0 ROOT
