@<TRIPOS>MOLECULE
1VL
   51    55     1     0     0
SMALL
bcc


@<TRIPOS>ATOM
      1 O10          0.0000     0.0000     0.0000 o          1 1VL      -0.629500
      2 C8           1.2130     0.0000     0.0000 c          1 1VL       0.613500
      3 C7           2.1120     0.0000     1.2190 c3         1 1VL       0.172400
      4 O11          1.8840    -1.1690     2.0090 oh         1 1VL      -0.554800
      5 N9           2.0120    -0.0080    -1.0800 n          1 1VL       0.026000
      6 C5           3.3650    -0.0070    -0.7370 ca         1 1VL      -0.067400
      7 C4           4.5070    -0.0130    -1.5350 ca         1 1VL      -0.140000
      8 C3           5.7580    -0.0090    -0.9540 ca         1 1VL      -0.060000
      9 C2           5.8890    -0.0020     0.4230 ca         1 1VL      -0.132000
     10 C1           4.7590     0.0040     1.2220 ca         1 1VL      -0.020000
     11 C6           3.5090    -0.0080     0.6450 ca         1 1VL      -0.168300
     12 C12          1.5200    -0.0160    -2.4590 c3         1 1VL       0.210200
     13 N13          1.3560     1.3660    -2.9300 n3         1 1VL      -0.540600
     14 C14          2.6410     1.9280    -3.3690 c3         1 1VL       0.100300
     15 C15          2.4420     3.3910    -3.7760 c3         1 1VL       0.150300
     16 N16          1.4430     3.4650    -4.8510 n3         1 1VL      -0.532600
     17 C17          0.1580     2.9030    -4.4120 c3         1 1VL       0.150300
     18 C18          0.3570     1.4400    -4.0050 c3         1 1VL       0.100300
     19 H1           1.9510     0.8970     1.8050 h1         1 1VL       0.030700
     20 H2           1.4580    -0.9260     2.8140 ho         1 1VL       0.396000
     21 H3           4.4120    -0.0190    -2.6140 ha         1 1VL       0.110000
     22 H4           6.6420    -0.0140    -1.5800 ha         1 1VL       0.103000
     23 H5           6.8740     0.0010     0.8750 ha         1 1VL       0.109000
     24 H6           4.8580     0.0100     2.3010 ha         1 1VL       0.104000
     25 H7           0.5650    -0.5270    -2.4990 h2         1 1VL       0.032700
     26 H8           2.2310    -0.5320    -3.0940 h2         1 1VL       0.032700
     27 H10          3.0100     1.3650    -4.2180 h1         1 1VL       0.022450
     28 H11          3.3540     1.8740    -2.5550 h1         1 1VL       0.022450
     29 H12          3.3820     3.7970    -4.1280 h1         1 1VL       0.036200
     30 H13          2.0950     3.9580    -2.9210 h1         1 1VL       0.036200
     31 H16         -0.5560     2.9570    -5.2260 h1         1 1VL       0.036200
     32 H17         -0.2110     3.4660    -3.5630 h1         1 1VL       0.036200
     33 H18         -0.5830     1.0330    -3.6520 h1         1 1VL       0.022450
     34 H19          0.7040     0.8720    -4.8600 h1         1 1VL       0.022450
     35 C19          1.9250     2.7940    -6.0650 c3         1 1VL       0.198100
     36 C20          0.9940     3.0980    -7.2100 ca         1 1VL      -0.089300
     37 C21          1.2220     4.2030    -8.0090 ca         1 1VL      -0.078000
     38 C22          0.3710     4.4870    -9.0610 ca         1 1VL      -0.086000
     39 C23         -0.7130     3.6630    -9.3170 ca         1 1VL       0.056100
     40 C24         -0.9430     2.5500    -8.5120 ca         1 1VL       0.056100
     41 C25         -0.0830     2.2690    -7.4630 ca         1 1VL      -0.094000
     42 O27         -2.0600     1.9080    -8.9640 os         1 1VL      -0.313900
     43 O28         -1.6860     3.7190   -10.2730 os         1 1VL      -0.312900
     44 C26         -2.2750     2.4050   -10.2990 c3         1 1VL       0.432200
     45 H9           2.9200     3.1490    -6.3030 h1         1 1VL       0.016700
     46 H14          1.9540     1.7240    -5.8980 h1         1 1VL       0.016700
     47 H15          2.0730     4.8440    -7.8150 ha         1 1VL       0.113000
     48 H20          0.5520     5.3530    -9.6860 ha         1 1VL       0.113000
     49 H21         -0.2250     1.3720    -6.8730 ha         1 1VL       0.115000
     50 H22         -3.3350     2.4700   -10.5130 h2         1 1VL       0.011700
     51 H23         -1.7710     1.7780   -11.0240 h2         1 1VL       0.011700
@<TRIPOS>BOND
     1     1     2 2   
     2     2     3 1   
     3     2     5 1   
     4     3     4 1   
     5     3    11 1   
     6     3    19 1   
     7     4    20 1   
     8     5     6 1   
     9     5    12 1   
    10     6     7 ar  
    11     6    11 ar  
    12     7     8 ar  
    13     7    21 1   
    14     8     9 ar  
    15     8    22 1   
    16     9    10 ar  
    17     9    23 1   
    18    10    11 ar  
    19    10    24 1   
    20    12    13 1   
    21    12    25 1   
    22    12    26 1   
    23    13    14 1   
    24    13    18 1   
    25    14    15 1   
    26    14    27 1   
    27    14    28 1   
    28    15    16 1   
    29    15    29 1   
    30    15    30 1   
    31    16    17 1   
    32    16    35 1   
    33    17    18 1   
    34    17    31 1   
    35    17    32 1   
    36    18    33 1   
    37    18    34 1   
    38    35    36 1   
    39    35    45 1   
    40    35    46 1   
    41    36    37 ar  
    42    36    41 ar  
    43    37    38 ar  
    44    37    47 1   
    45    38    39 ar  
    46    38    48 1   
    47    39    40 ar  
    48    39    43 1   
    49    40    41 ar  
    50    40    42 1   
    51    41    49 1   
    52    42    44 1   
    53    43    44 1   
    54    44    50 1   
    55    44    51 1   
@<TRIPOS>SUBSTRUCTURE
     1 1VL         1 TEMP              0 ****  ****    0 ROOT
