@<TRIPOS>MOLECULE
molecule
   51    55     1     0     0
SMALL
bcc


@<TRIPOS>ATOM
      1 O10          0.0000     0.0000     0.0000 o          1 1VL      -0.588500
      2 C8           1.2130     0.0000     0.0000 c          1 1VL       0.709500
      3 C7           2.1120     0.0000     1.2190 c3         1 1VL       0.113400
      4 O11          1.8840    -1.1690     2.0090 oh         1 1VL      -0.570800
      5 N9           2.0120    -0.0080    -1.0800 n          1 1VL      -0.363000
      6 C5           3.3650    -0.0070    -0.7370 ca         1 1VL       0.072600
      7 C4           4.5070    -0.0130    -1.5350 ca         1 1VL      -0.169000
      8 C3           5.7580    -0.0090    -0.9540 ca         1 1VL      -0.088000
      9 C2           5.8890    -0.0020     0.4230 ca         1 1VL      -0.160000
     10 C1           4.7590     0.0040     1.2220 ca         1 1VL      -0.058000
     11 C6           3.5090    -0.0080     0.6450 ca         1 1VL      -0.153300
     12 C12          1.5200    -0.0160    -2.4590 c3         1 1VL       0.343200
     13 N13          1.3560     1.3660    -2.9300 n3         1 1VL      -0.738600
     14 C14          2.6410     1.9280    -3.3690 c3         1 1VL       0.117300
     15 C15          2.4420     3.3910    -3.7760 c3         1 1VL       0.161800
     16 N16          1.4430     3.4650    -4.8510 n3         1 1VL      -0.715600
     17 C17          0.1580     2.9030    -4.4120 c3         1 1VL       0.161800
     18 C18          0.3570     1.4400    -4.0050 c3         1 1VL       0.117300
     19 H1           1.9510     0.8970     1.8050 h1         1 1VL       0.073700
     20 H2           1.4580    -0.9260     2.8140 ho         1 1VL       0.410000
     21 H3           4.4120    -0.0190    -2.6140 ha         1 1VL       0.132000
     22 H4           6.6420    -0.0140    -1.5800 ha         1 1VL       0.135000
     23 H5           6.8740     0.0010     0.8750 ha         1 1VL       0.136000
     24 H6           4.8580     0.0100     2.3010 ha         1 1VL       0.136000
     25 H7           0.5650    -0.5270    -2.4990 h2         1 1VL       0.060200
     26 H8           2.2310    -0.5320    -3.0940 h2         1 1VL       0.060200
     27 H10          3.0100     1.3650    -4.2180 h1         1 1VL       0.041450
     28 H11          3.3540     1.8740    -2.5550 h1         1 1VL       0.041450
     29 H12          3.3820     3.7970    -4.1280 h1         1 1VL       0.068950
     30 H13          2.0950     3.9580    -2.9210 h1         1 1VL       0.068950
     31 H16         -0.5560     2.9570    -5.2260 h1         1 1VL       0.068950
     32 H17         -0.2110     3.4660    -3.5630 h1         1 1VL       0.068950
     33 H18         -0.5830     1.0330    -3.6520 h1         1 1VL       0.041450
     34 H19          0.7040     0.8720    -4.8600 h1         1 1VL       0.041450
     35 C19          1.9250     2.7940    -6.0650 c3         1 1VL       0.204100
     36 C20          0.9940     3.0980    -7.2100 ca         1 1VL      -0.078300
     37 C21          1.2220     4.2030    -8.0090 ca         1 1VL      -0.104000
     38 C22          0.3710     4.4870    -9.0610 ca         1 1VL      -0.113000
     39 C23         -0.7130     3.6630    -9.3170 ca         1 1VL       0.050100
     40 C24         -0.9430     2.5500    -8.5120 ca         1 1VL       0.048100
     41 C25         -0.0830     2.2690    -7.4630 ca         1 1VL      -0.115000
     42 O27         -2.0600     1.9080    -8.9640 os         1 1VL      -0.325900
     43 O28         -1.6860     3.7190   -10.2730 os         1 1VL      -0.324900
     44 C26         -2.2750     2.4050   -10.2990 c3         1 1VL       0.331200
     45 H9           2.9200     3.1490    -6.3030 h1         1 1VL       0.041200
     46 H14          1.9540     1.7240    -5.8980 h1         1 1VL       0.041200
     47 H15          2.0730     4.8440    -7.8150 ha         1 1VL       0.144000
     48 H20          0.5520     5.3530    -9.6860 ha         1 1VL       0.145000
     49 H21         -0.2250     1.3720    -6.8730 ha         1 1VL       0.141000
     50 H22         -3.3350     2.4700   -10.5130 h2         1 1VL       0.069200
     51 H23         -1.7710     1.7780   -11.0240 h2         1 1VL       0.069200
@<TRIPOS>BOND
     1     9    10 ar
     2     9     8 ar
     3    10    11 ar
     4     8     7 ar
     5    11     3 1
     6    11     6 ar
     7     4     3 1
     8     7     6 ar
     9     3     2 1
    10     6     5 1
    11     2     5 1
    12     2     1 2
    13     5    12 1
    14    14    13 1
    15    14    15 1
    16    12    13 1
    17    13    18 1
    18    15    16 1
    19    16    17 1
    20    18    17 1
    21     3    19 1
    22     4    20 1
    23     7    21 1
    24     8    22 1
    25     9    23 1
    26    10    24 1
    27    12    25 1
    28    12    26 1
    29    14    27 1
    30    14    28 1
    31    15    29 1
    32    15    30 1
    33    17    31 1
    34    17    32 1
    35    18    33 1
    36    18    34 1
    37    16    35 1
    38    35    36 1
    39    36    37 ar
    40    37    38 ar
    41    38    39 ar
    42    39    40 ar
    43    40    41 ar
    44    41    36 ar
    45    40    42 1
    46    39    43 1
    47    42    44 1
    48    43    44 1
    49    35    45 1
    50    35    46 1
    51    37    47 1
    52    38    48 1
    53    41    49 1
    54    44    50 1
    55    44    51 1
@<TRIPOS>SUBSTRUCTURE
     1 1VL         1 TEMP              0 ****  ****    0 ROOT
