@<TRIPOS>MOLECULE
1VM
   45    49     1     0     0
SMALL
bcc


@<TRIPOS>ATOM
      1 N11          0.0000     0.0000     0.0000 nv         1 1VM      -0.652500
      2 C1           1.3790     0.0000     0.0000 ca         1 1VM       0.558200
      3 N2           2.0580     0.0000     1.1380 nb         1 1VM      -0.637000
      4 C6           2.1040    -0.0070    -1.2160 ca         1 1VM      -0.276600
      5 C5           3.5190    -0.0060    -1.1530 ca         1 1VM       0.410600
      6 N4           4.1130    -0.0000     0.0500 nb         1 1VM      -0.612000
      7 C3           3.3880     0.0000     1.1530 ca         1 1VM       0.721900
      8 N12          4.0370     0.0070     2.3740 nv         1 1VM      -0.641500
      9 C7           1.4620    -0.0130    -2.4600 ca         1 1VM      -0.048000
     10 C8           2.2020    -0.0200    -3.6040 ca         1 1VM      -0.097000
     11 C9           3.6000    -0.0200    -3.5520 ca         1 1VM      -0.165200
     12 C10          4.2610    -0.0130    -2.3410 ca         1 1VM      -0.117300
     13 N13          4.3360    -0.0260    -4.7410 na         1 1VM       0.424600
     14 C14          4.3680     0.9760    -5.6930 ca         1 1VM      -0.254200
     15 C18          3.7550     2.2160    -5.8040 ca         1 1VM      -0.092000
     16 C19          3.9980     3.0060    -6.9070 ca         1 1VM      -0.067300
     17 C22          3.3310     4.3520    -7.0270 c3         1 1VM       0.062200
     18 C20          4.8550     2.5710    -7.9090 ca         1 1VM      -0.106300
     19 C23          5.1110     3.4490    -9.1070 c3         1 1VM       0.065200
     20 C21          5.4740     1.3450    -7.8170 ca         1 1VM      -0.030000
     21 C15          5.2370     0.5310    -6.7040 ca         1 1VM       0.052400
     22 N16          5.6860    -0.6940    -6.3380 nc         1 1VM      -0.456100
     23 C17          5.1660    -1.0270    -5.1810 cd         1 1VM       0.165800
     24 C24          5.4240    -2.2890    -4.4670 cd         1 1VM       0.457100
     25 N25          6.2050    -3.2480    -4.8830 nc         1 1VM      -0.508000
     26 C26          6.3160    -4.3030    -4.1140 cc         1 1VM       0.350200
     27 C27          5.6080    -4.2730    -2.9760 cd         1 1VM      -0.107400
     28 S28          4.7370    -2.7430    -2.9090 ss         1 1VM      -0.345300
     29 H1          -0.5000    -0.8670     0.0260 hn         1 1VM       0.283800
     30 H2          -0.5000     0.8670     0.0180 hn         1 1VM       0.283800
     31 H3           4.2850    -0.8570     2.8130 hn         1 1VM       0.281800
     32 H4           4.2590     0.8770     2.8170 hn         1 1VM       0.281800
     33 H5           0.3800    -0.0130    -2.5130 ha         1 1VM       0.117000
     34 H6           1.7020    -0.0250    -4.5650 ha         1 1VM       0.121000
     35 H7           5.3440    -0.0130    -2.3090 ha         1 1VM       0.140000
     36 H8           3.1370     2.5900    -4.9960 ha         1 1VM       0.109000
     37 H9           4.0870     5.1240    -7.1000 hc         1 1VM       0.009033
     38 H10          2.7090     4.3690    -7.9140 hc         1 1VM       0.009033
     39 H11          2.7170     4.5290    -6.1520 hc         1 1VM       0.009033
     40 H12          5.7940     2.9480    -9.7830 hc         1 1VM       0.008367
     41 H13          5.5460     4.3860    -8.7830 hc         1 1VM       0.008367
     42 H14          4.1750     3.6430    -9.6180 hc         1 1VM       0.008367
     43 H15          6.1410     1.0120    -8.6020 ha         1 1VM       0.116000
     44 H16          6.9400    -5.1470    -4.3810 h4         1 1VM       0.001100
     45 H17          5.5810    -5.0530    -2.2240 h4         1 1VM       0.159000
@<TRIPOS>BOND
     1     1     2 1   
     2     1    29 1   
     3     1    30 1   
     4     2     3 ar  
     5     2     4 ar  
     6     3     7 ar  
     7     4     5 ar  
     8     4     9 ar  
     9     5     6 ar  
    10     5    12 ar  
    11     6     7 ar  
    12     7     8 1   
    13     8    31 1   
    14     8    32 1   
    15     9    10 ar  
    16     9    33 1   
    17    10    11 ar  
    18    10    34 1   
    19    11    12 ar  
    20    11    13 1   
    21    12    35 1   
    22    13    14 1   
    23    13    23 1   
    24    14    15 ar  
    25    14    21 ar  
    26    15    16 ar  
    27    15    36 1   
    28    16    17 1   
    29    16    18 ar  
    30    17    37 1   
    31    17    38 1   
    32    17    39 1   
    33    18    19 1   
    34    18    20 ar  
    35    19    40 1   
    36    19    41 1   
    37    19    42 1   
    38    20    21 ar  
    39    20    43 1   
    40    21    22 1   
    41    22    23 2   
    42    23    24 1   
    43    24    25 2   
    44    24    28 1   
    45    25    26 1   
    46    26    27 2   
    47    26    44 1   
    48    27    28 1   
    49    27    45 1   
@<TRIPOS>SUBSTRUCTURE
     1 1VM         1 TEMP              0 ****  ****    0 ROOT
