@<TRIPOS>MOLECULE
molecule
   45    49     1     0     0
SMALL
bcc


@<TRIPOS>ATOM
      1 N11          0.0000     0.0000     0.0000 nv         1 1VM      -1.081500
      2 C1           1.3790     0.0000     0.0000 ca         1 1VM       0.751200
      3 N2           2.0580     0.0000     1.1380 nb         1 1VM      -0.773000
      4 C6           2.1040    -0.0070    -1.2160 ca         1 1VM      -0.303600
      5 C5           3.5190    -0.0060    -1.1530 ca         1 1VM       0.464600
      6 N4           4.1130    -0.0000     0.0500 nb         1 1VM      -0.740000
      7 C3           3.3880     0.0000     1.1530 ca         1 1VM       0.949900
      8 N12          4.0370     0.0070     2.3740 nv         1 1VM      -1.060500
      9 C7           1.4620    -0.0130    -2.4600 ca         1 1VM      -0.071000
     10 C8           2.2020    -0.0200    -3.6040 ca         1 1VM      -0.142000
     11 C9           3.6000    -0.0200    -3.5520 ca         1 1VM       0.015800
     12 C10          4.2610    -0.0130    -2.3410 ca         1 1VM      -0.175300
     13 N13          4.3360    -0.0260    -4.7410 na         1 1VM      -0.089400
     14 C14          4.3680     0.9760    -5.6930 ca         1 1VM      -0.072200
     15 C18          3.7550     2.2160    -5.8040 ca         1 1VM      -0.127000
     16 C19          3.9980     3.0060    -6.9070 ca         1 1VM      -0.060300
     17 C22          3.3310     4.3520    -7.0270 c3         1 1VM      -0.044800
     18 C20          4.8550     2.5710    -7.9090 ca         1 1VM      -0.099300
     19 C23          5.1110     3.4490    -9.1070 c3         1 1VM      -0.041800
     20 C21          5.4740     1.3450    -7.8170 ca         1 1VM      -0.061000
     21 C15          5.2370     0.5310    -6.7040 ca         1 1VM       0.087400
     22 N16          5.6860    -0.6940    -6.3380 nc         1 1VM      -0.539100
     23 C17          5.1660    -1.0270    -5.1810 cc         1 1VM       0.386800
     24 C24          5.4240    -2.2890    -4.4670 cc         1 1VM       0.460100
     25 N25          6.2050    -3.2480    -4.8830 nd         1 1VM      -0.628000
     26 C26          6.3160    -4.3030    -4.1140 cd         1 1VM       0.362200
     27 C27          5.6080    -4.2730    -2.9760 cc         1 1VM      -0.182400
     28 S28          4.7370    -2.7430    -2.9090 ss         1 1VM      -0.216300
     29 H1          -0.5000    -0.8670     0.0260 hn         1 1VM       0.445300
     30 H2          -0.5000     0.8670     0.0180 hn         1 1VM       0.445300
     31 H3           4.2850    -0.8570     2.8130 hn         1 1VM       0.446300
     32 H4           4.2590     0.8770     2.8170 hn         1 1VM       0.446300
     33 H5           0.3800    -0.0130    -2.5130 ha         1 1VM       0.149000
     34 H6           1.7020    -0.0250    -4.5650 ha         1 1VM       0.151000
     35 H7           5.3440    -0.0130    -2.3090 ha         1 1VM       0.172000
     36 H8           3.1370     2.5900    -4.9960 ha         1 1VM       0.134000
     37 H9           4.0870     5.1240    -7.1000 hc         1 1VM       0.044367
     38 H10          2.7090     4.3690    -7.9140 hc         1 1VM       0.044367
     39 H11          2.7170     4.5290    -6.1520 hc         1 1VM       0.044367
     40 H12          5.7940     2.9480    -9.7830 hc         1 1VM       0.043700
     41 H13          5.5460     4.3860    -8.7830 hc         1 1VM       0.043700
     42 H14          4.1750     3.6430    -9.6180 hc         1 1VM       0.043700
     43 H15          6.1410     1.0120    -8.6020 ha         1 1VM       0.148000
     44 H16          6.9400    -5.1470    -4.3810 h4         1 1VM       0.046100
     45 H17          5.5810    -5.0530    -2.2240 h4         1 1VM       0.182000
@<TRIPOS>BOND
     1    27    28 1   
     2    27    26 2   
     3    28    24 1   
     4    26    25 1   
     5    24    25 2   
     6    24    23 1   
     7    22    23 2   
     8    22    21 1   
     9    23    13 1   
    10    21    20 ar  
    11    21    14 ar  
    12    20    18 ar  
    13    13    14 1   
    14    13    11 1   
    15    14    15 ar  
    16    12    11 ar  
    17    12     5 ar  
    18    11    10 ar  
    19    18    19 1   
    20    18    16 ar  
    21     6     5 ar  
    22     6     7 ar  
    23     5     4 ar  
    24    10     9 ar  
    25    15    16 ar  
    26     8     7 1   
    27     7     3 ar  
    28    16    17 1   
    29     4     9 ar  
    30     4     2 ar  
    31     3     2 ar  
    32     2     1 1   
    33     1    29 1   
    34     1    30 1   
    35     8    31 1   
    36     8    32 1   
    37     9    33 1   
    38    10    34 1   
    39    12    35 1   
    40    15    36 1   
    41    17    37 1   
    42    17    38 1   
    43    17    39 1   
    44    19    40 1   
    45    19    41 1   
    46    19    42 1   
    47    20    43 1   
    48    26    44 1   
    49    27    45 1   
@<TRIPOS>SUBSTRUCTURE
     1 1VM         1 TEMP              0 ****  ****    0 ROOT
