@<TRIPOS>MOLECULE
1VM
   45    49     1     0     0
SMALL
bcc


@<TRIPOS>ATOM
      1 N11         -0.0450     0.2920     0.0800 nv         1 1VM      -0.945500
      2 C1           1.3370     0.1720     0.0590 ca         1 1VM       0.728200
      3 N2           1.9930     0.1020     1.2360 nb         1 1VM      -0.824000
      4 C6           2.0390     0.0790    -1.2200 ca         1 1VM      -0.330600
      5 C5           3.4560    -0.0770    -1.1480 ca         1 1VM       0.488600
      6 N4           4.1330    -0.1710     0.0430 nb         1 1VM      -0.791000
      7 C3           3.3800    -0.1140     1.1800 ca         1 1VM       0.907900
      8 N12          4.0200    -0.3310     2.4070 nv         1 1VM      -0.925500
      9 C7           1.4080     0.1330    -2.4810 ca         1 1VM      -0.070000
     10 C8           2.1330     0.0580    -3.6440 ca         1 1VM      -0.136000
     11 C9           3.5540    -0.0680    -3.5930 ca         1 1VM       0.059800
     12 C10          4.2030    -0.1370    -2.3680 ca         1 1VM      -0.200300
     13 N13          4.2940    -0.1650    -4.7930 na         1 1VM      -0.081400
     14 C14          5.0980    -1.2600    -5.1570 ca         1 1VM      -0.063200
     15 C18          5.4160    -2.4580    -4.5080 ca         1 1VM      -0.124000
     16 C19          6.2530    -3.3540    -5.1640 ca         1 1VM      -0.057300
     17 C22          6.6120    -4.6320    -4.5030 c3         1 1VM      -0.053800
     18 C20          6.7740    -3.0660    -6.4540 ca         1 1VM      -0.094300
     19 C23          7.6630    -4.0540    -7.1130 c3         1 1VM      -0.049800
     20 C21          6.4660    -1.8800    -7.1080 ca         1 1VM      -0.071000
     21 C15          5.6240    -0.9550    -6.4730 ca         1 1VM       0.070400
     22 N16          5.1570     0.3030    -6.8850 nc         1 1VM      -0.571100
     23 C17          4.3750     0.7540    -5.8730 cd         1 1VM       0.384800
     24 C24          3.7330     2.0600    -5.9020 cd         1 1VM       0.338100
     25 N25          3.0430     2.6120    -4.8870 nc         1 1VM      -0.620000
     26 C26          2.6060     3.8600    -5.2700 cc         1 1VM       0.329200
     27 C27          2.9650     4.2400    -6.5630 cd         1 1VM      -0.289400
     28 S28          3.8490     3.0470    -7.3000 ss         1 1VM       0.057700
     29 H1          -0.4860     0.4750     0.9520 hn         1 1VM       0.425300
     30 H2          -0.4700     0.6940    -0.7200 hn         1 1VM       0.425300
     31 H3           5.0080    -0.2180     2.4140 hn         1 1VM       0.425300
     32 H4           3.5380    -0.0260     3.2200 hn         1 1VM       0.425300
     33 H5           0.3130     0.2210    -2.5550 ha         1 1VM       0.128000
     34 H6           1.6230     0.1060    -4.6190 ha         1 1VM       0.148000
     35 H7           5.2990    -0.2450    -2.3090 ha         1 1VM       0.166000
     36 H8           5.0170    -2.6780    -3.5080 ha         1 1VM       0.148000
     37 H9           6.2770    -5.4970    -5.1300 hc         1 1VM       0.046033
     38 H10          7.7210    -4.7040    -4.3770 hc         1 1VM       0.046033
     39 H11          6.1350    -4.7190    -3.4960 hc         1 1VM       0.046033
     40 H12          7.9920    -3.6980    -8.1200 hc         1 1VM       0.043367
     41 H13          7.1310    -5.0300    -7.2390 hc         1 1VM       0.043367
     42 H14          8.5730    -4.2330    -6.4870 hc         1 1VM       0.043367
     43 H15          6.8710    -1.6590    -8.1060 ha         1 1VM       0.148000
     44 H16          2.0260     4.4570    -4.5580 h4         1 1VM       0.045100
     45 H17          2.7040     5.1910    -7.0230 h4         1 1VM       0.184000
@<TRIPOS>BOND
     1     1     2 1   
     2     1    29 1   
     3     1    30 1   
     4     2     3 ar  
     5     2     4 ar  
     6     3     7 ar  
     7     4     5 ar  
     8     4     9 ar  
     9     5     6 ar  
    10     5    12 ar  
    11     6     7 ar  
    12     7     8 1   
    13     8    31 1   
    14     8    32 1   
    15     9    10 ar  
    16     9    33 1   
    17    10    11 ar  
    18    10    34 1   
    19    11    12 ar  
    20    11    13 1   
    21    12    35 1   
    22    13    14 1   
    23    13    23 1   
    24    14    15 ar  
    25    14    21 ar  
    26    15    16 ar  
    27    15    36 1   
    28    16    17 1   
    29    16    18 ar  
    30    17    37 1   
    31    17    38 1   
    32    17    39 1   
    33    18    19 1   
    34    18    20 ar  
    35    19    40 1   
    36    19    41 1   
    37    19    42 1   
    38    20    21 ar  
    39    20    43 1   
    40    21    22 1   
    41    22    23 2   
    42    23    24 1   
    43    24    25 2   
    44    24    28 1   
    45    25    26 1   
    46    26    27 2   
    47    26    44 1   
    48    27    28 1   
    49    27    45 1   
@<TRIPOS>SUBSTRUCTURE
     1 1VM         1 TEMP              0 ****  ****    0 ROOT
