@<TRIPOS>MOLECULE
1VN
   45    49     1     0     0
SMALL
bcc


@<TRIPOS>ATOM
      1 Cl1          0.1530    -0.8130    -0.0060 cl         1 1VN      -0.074400
      2 C8           1.8040    -0.4150     0.0340 ca         1 1VN      -0.006600
      3 C7           2.4490    -0.3400     1.2490 ca         1 1VN      -0.069000
      4 C6           3.8210    -0.0250     1.3230 ca         1 1VN      -0.326600
      5 C1           4.5740     0.0790     2.5740 ca         1 1VN       0.736200
      6 N11          3.9260    -0.0680     3.7870 nv         1 1VN      -0.951500
      7 C9           2.5170    -0.1550    -1.1830 ca         1 1VN       0.062800
      8 C10          3.8640     0.1650    -1.1280 ca         1 1VN      -0.167300
      9 C5           4.5540     0.2340     0.1270 ca         1 1VN       0.489600
     10 N4           5.8880     0.5500     0.1260 nb         1 1VN      -0.790000
     11 C3           6.5080     0.5890     1.3440 ca         1 1VN       0.913900
     12 N12          7.8910     0.7990     1.3700 nv         1 1VN      -0.927500
     13 N2           5.8910     0.3720     2.5850 nb         1 1VN      -0.825000
     14 N14          1.8560    -0.2370    -2.4280 na         1 1VN      -0.088400
     15 C18          1.0500     0.7500    -3.0580 cc         1 1VN       0.394800
     16 C25          0.8190     2.0790    -2.5130 cc         1 1VN       0.337100
     17 N29          1.4170     2.5740    -1.4130 nd         1 1VN      -0.619000
     18 C28          0.9640     3.8550    -1.1960 cd         1 1VN       0.332200
     19 C27          0.0320     4.3170    -2.1260 cc         1 1VN      -0.289400
     20 S26         -0.2770     3.1560    -3.2690 ss         1 1VN       0.055700
     21 N17          0.5270     0.3240    -4.2330 nd         1 1VN      -0.569100
     22 C16          0.9890    -0.9930    -4.3980 ca         1 1VN       0.071400
     23 C22          0.7720    -1.9230    -5.4240 ca         1 1VN      -0.071000
     24 C21          1.3640    -3.1770    -5.3310 ca         1 1VN      -0.096300
     25 C24          1.1430    -4.1710    -6.4090 c3         1 1VN      -0.048800
     26 C20          2.1790    -3.5260    -4.2220 ca         1 1VN      -0.058300
     27 C23          2.7900    -4.8760    -4.1650 c3         1 1VN      -0.052800
     28 C19          2.4140    -2.6270    -3.1880 ca         1 1VN      -0.124000
     29 C15          1.8240    -1.3610    -3.2700 ca         1 1VN      -0.055200
     30 H1           1.8650    -0.5280     2.1640 ha         1 1VN       0.140000
     31 H2           4.4700    -0.1100     4.6170 hn         1 1VN       0.431300
     32 H3           3.0630    -0.5520     3.7910 hn         1 1VN       0.431300
     33 H4           4.4330     0.3780    -2.0500 ha         1 1VN       0.171000
     34 H5           8.2850     1.0840     2.2360 hn         1 1VN       0.428800
     35 H6           8.2980     1.1850     0.5500 hn         1 1VN       0.428800
     36 H7           1.3510     4.4130    -0.3360 h4         1 1VN       0.046100
     37 H8          -0.4270     5.3030    -2.1050 h4         1 1VN       0.184000
     38 H9           0.1420    -1.6550    -6.2840 ha         1 1VN       0.148000
     39 H10          2.1190    -4.4660    -6.8710 hc         1 1VN       0.043033
     40 H11          0.6620    -5.0920    -5.9940 hc         1 1VN       0.043033
     41 H12          0.4830    -3.7600    -7.2120 hc         1 1VN       0.043033
     42 H13          1.9930    -5.6620    -4.1760 hc         1 1VN       0.045033
     43 H14          3.4500    -5.0390    -5.0550 hc         1 1VN       0.045033
     44 H15          3.4040    -5.0090    -3.2410 hc         1 1VN       0.045033
     45 H16          3.0460    -2.9000    -2.3300 ha         1 1VN       0.144000
@<TRIPOS>BOND
     1     1     2 1   
     2     2     3 ar  
     3     2     7 ar  
     4     3     4 ar  
     5     3    30 1   
     6     4     5 ar  
     7     4     9 ar  
     8     5     6 1   
     9     5    13 ar  
    10     6    31 1   
    11     6    32 1   
    12     7     8 ar  
    13     7    14 1   
    14     8     9 ar  
    15     8    33 1   
    16     9    10 ar  
    17    10    11 ar  
    18    11    12 1   
    19    11    13 ar  
    20    12    34 1   
    21    12    35 1   
    22    14    15 1   
    23    14    29 1   
    24    15    16 1   
    25    15    21 2   
    26    16    17 2   
    27    16    20 1   
    28    17    18 1   
    29    18    19 2   
    30    18    36 1   
    31    19    20 1   
    32    19    37 1   
    33    21    22 1   
    34    22    23 ar  
    35    22    29 ar  
    36    23    24 ar  
    37    23    38 1   
    38    24    25 1   
    39    24    26 ar  
    40    25    39 1   
    41    25    40 1   
    42    25    41 1   
    43    26    27 1   
    44    26    28 ar  
    45    27    42 1   
    46    27    43 1   
    47    27    44 1   
    48    28    29 ar  
    49    28    45 1   
@<TRIPOS>SUBSTRUCTURE
     1 1VN         1 TEMP              0 ****  ****    0 ROOT
