@<TRIPOS>MOLECULE
1VN
   45    49     1     0     0
SMALL
bcc


@<TRIPOS>ATOM
      1 Cl1          0.0000     0.0000     0.0000 cl         1 1VN       0.006600
      2 C8           1.7350     0.0000     0.0000 ca         1 1VN      -0.067600
      3 C7           2.4100     0.0000     1.1840 ca         1 1VN      -0.028000
      4 C6           3.8090    -0.0000     1.1880 ca         1 1VN      -0.324600
      5 C1           4.5540    -0.0010     2.3920 ca         1 1VN       0.598200
      6 N11          3.9180    -0.0010     3.6160 nv         1 1VN      -0.627500
      7 C9           2.4270    -0.0060    -1.2180 ca         1 1VN      -0.149200
      8 C10          3.8070    -0.0060    -1.2440 ca         1 1VN      -0.122300
      9 C5           4.5190    -0.0000    -0.0390 ca         1 1VN       0.462600
     10 N4           5.8600    -0.0000    -0.0100 nb         1 1VN      -0.716000
     11 C3           6.5040     0.0050     1.1420 ca         1 1VN       0.726900
     12 N12          7.8870     0.0040     1.1280 nv         1 1VN      -0.488500
     13 N2           5.8770    -0.0010     2.3150 nb         1 1VN      -0.697000
     14 N14          1.7120    -0.0120    -2.4180 na         1 1VN       0.419600
     15 C18          1.3010     1.0890    -3.1280 cc         1 1VN       0.169800
     16 C25          1.5410     2.4890    -2.7380 cc         1 1VN       0.466100
     17 N29          1.1520     3.5390    -3.4070 nd         1 1VN      -0.513000
     18 C28          1.4560     4.7110    -2.9050 cd         1 1VN       0.352200
     19 C27          2.1380     4.6950    -1.7520 cc         1 1VN      -0.106400
     20 S26          2.3920     3.0130    -1.2880 ss         1 1VN      -0.350300
     21 N17          0.6600     0.7050    -4.2070 nd         1 1VN      -0.458100
     22 C16          0.6210    -0.6480    -4.2590 ca         1 1VN       0.054400
     23 C22          0.0770    -1.5580    -5.1710 ca         1 1VN      -0.032000
     24 C21          0.2010    -2.9090    -4.9440 ca         1 1VN      -0.106300
     25 C24         -0.3850    -3.8900    -5.9270 c3         1 1VN       0.065200
     26 C20          0.8640    -3.3770    -3.8180 ca         1 1VN      -0.069300
     27 C23          0.9910    -4.8610    -3.5870 c3         1 1VN       0.062200
     28 C19          1.4070    -2.4940    -2.9090 ca         1 1VN      -0.088000
     29 C15          1.2910    -1.1280    -3.1180 ca         1 1VN      -0.251200
     30 H1           1.8650     0.0860     2.1170 ha         1 1VN       0.123000
     31 H2           3.4740    -0.8340     3.9480 hn         1 1VN       0.284300
     32 H3           3.9450     0.8150     4.1940 hn         1 1VN       0.284300
     33 H4           4.3350    -0.0110    -2.1900 ha         1 1VN       0.135000
     34 H5           8.3960     0.0020     1.9900 hn         1 1VN       0.276800
     35 H6           8.3790     0.0080     0.2560 hn         1 1VN       0.276800
     36 H7           1.1750     5.6360    -3.3950 h4         1 1VN       0.001100
     37 H8           2.4700     5.5640    -1.1980 h4         1 1VN       0.158000
     38 H9          -0.3530    -1.2020    -6.0990 ha         1 1VN       0.116000
     39 H10         -0.8700    -3.3490    -6.7310 hc         1 1VN       0.007700
     40 H11          0.4050    -4.5090    -6.3350 hc         1 1VN       0.007700
     41 H12         -1.1110    -4.5160    -5.4230 hc         1 1VN       0.007700
     42 H13          0.0040    -5.3010    -3.5100 hc         1 1VN       0.008700
     43 H14          1.5230    -5.3120    -4.4170 hc         1 1VN       0.008700
     44 H15          1.5380    -5.0380    -2.6690 hc         1 1VN       0.008700
     45 H16          1.9230    -2.8670    -2.0320 ha         1 1VN       0.109000
@<TRIPOS>BOND
     1     1     2 1   
     2     2     3 ar  
     3     2     7 ar  
     4     3     4 ar  
     5     3    30 1   
     6     4     5 ar  
     7     4     9 ar  
     8     5     6 1   
     9     5    13 ar  
    10     6    31 1   
    11     6    32 1   
    12     7     8 ar  
    13     7    14 1   
    14     8     9 ar  
    15     8    33 1   
    16     9    10 ar  
    17    10    11 ar  
    18    11    12 1   
    19    11    13 ar  
    20    12    34 1   
    21    12    35 1   
    22    14    15 1   
    23    14    29 1   
    24    15    16 1   
    25    15    21 2   
    26    16    17 2   
    27    16    20 1   
    28    17    18 1   
    29    18    19 2   
    30    18    36 1   
    31    19    20 1   
    32    19    37 1   
    33    21    22 1   
    34    22    23 ar  
    35    22    29 ar  
    36    23    24 ar  
    37    23    38 1   
    38    24    25 1   
    39    24    26 ar  
    40    25    39 1   
    41    25    40 1   
    42    25    41 1   
    43    26    27 1   
    44    26    28 ar  
    45    27    42 1   
    46    27    43 1   
    47    27    44 1   
    48    28    29 ar  
    49    28    45 1   
@<TRIPOS>SUBSTRUCTURE
     1 1VN         1 TEMP              0 ****  ****    0 ROOT
