@<TRIPOS>MOLECULE
molecule
   45    49     1     0     0
SMALL
bcc


@<TRIPOS>ATOM
      1 N12          0.0000     0.0000     0.0000 nv         1 1VO      -1.060500
      2 C3           1.3830     0.0000     0.0000 ca         1 1VO       0.941900
      3 N2           2.0200     0.0000     1.1680 nb         1 1VO      -0.776000
      4 N4           2.0160    -0.0070    -1.1580 nb         1 1VO      -0.741000
      5 C5           3.3570    -0.0060    -1.2000 ca         1 1VO       0.461600
      6 C10          4.0570    -0.0130    -2.4110 ca         1 1VO      -0.139300
      7 C9           5.4370    -0.0120    -2.3960 ca         1 1VO       0.032800
      8 C8           6.1390    -0.0070    -1.1860 ca         1 1VO      -0.137000
      9 C7           5.4770    -0.0010     0.0040 ca         1 1VO      -0.081000
     10 C6           4.0770    -0.0000     0.0200 ca         1 1VO      -0.300600
     11 C1           3.3440     0.0010     1.2330 ca         1 1VO       0.746200
     12 N11          3.9910     0.0020     2.4500 nv         1 1VO      -1.081500
     13 N13          6.1420    -0.0180    -3.6040 na         1 1VO      -0.073400
     14 C17          6.1450    -1.0210    -4.5400 cc         1 1VO       0.402800
     15 C22          5.3980    -2.2890    -4.4300 cd         1 1VO       0.353000
     16 N26          4.6300    -2.5890    -3.3890 nd         1 1VO      -0.676000
     17 C25          4.0290    -3.7260    -3.4100 cc         1 1VO       0.446300
     18 S24          4.4030    -4.5760    -4.8450 ss         1 1VO      -0.203300
     19 C23          5.4270    -3.2480    -5.3840 cc         1 1VO      -0.129400
     20 N16          6.9120    -0.6820    -5.5480 nd         1 1VO      -0.595100
     21 C15          7.4450     0.5450    -5.3260 ca         1 1VO       0.094400
     22 C21          8.3110     1.3620    -6.0590 ca         1 1VO      -0.070000
     23 C20          8.6820     2.5900    -5.5570 ca         1 1VO      -0.097300
     24 C28          9.6150     3.4690    -6.3470 c3         1 1VO      -0.041800
     25 C19          8.2020     3.0230    -4.3290 ca         1 1VO      -0.066300
     26 C27          8.6180     4.3700    -3.7970 c3         1 1VO      -0.043800
     27 C18          7.3460     2.2300    -3.5930 ca         1 1VO      -0.122000
     28 C14          6.9620     0.9900    -4.0820 ca         1 1VO      -0.079200
     29 H1          -0.5000     0.8660    -0.0390 hn         1 1VO       0.444300
     30 H2          -0.5000    -0.8660     0.0380 hn         1 1VO       0.444300
     31 H3           3.5210    -0.0170    -3.3520 ha         1 1VO       0.165000
     32 H4           7.2220    -0.0060    -1.1950 ha         1 1VO       0.145000
     33 H5           6.0310     0.0040     0.9350 ha         1 1VO       0.145000
     34 H6           4.2100     0.8690     2.8990 hn         1 1VO       0.442800
     35 H7           4.2040    -0.8640     2.9040 hn         1 1VO       0.442800
     36 H8           3.3770    -4.0950    -2.6270 h5         1 1VO       0.066100
     37 H9           5.9850    -3.2070    -6.3110 h4         1 1VO       0.204000
     38 H10          8.7520     0.9970    -6.9780 ha         1 1VO       0.144000
     39 H11         10.5100     3.6600    -5.7670 hc         1 1VO       0.042700
     40 H12          9.1230     4.4080    -6.5710 hc         1 1VO       0.042700
     41 H13          9.8830     2.9720    -7.2720 hc         1 1VO       0.042700
     42 H14          9.6930     4.3900    -3.6650 hc         1 1VO       0.043700
     43 H15          8.1340     4.5460    -2.8440 hc         1 1VO       0.043700
     44 H16          8.3250     5.1410    -4.4980 hc         1 1VO       0.043700
     45 H17          6.9750     2.5740    -2.6350 ha         1 1VO       0.134000
@<TRIPOS>BOND
     1    18    19 1
     2    18    17 1
     3    19    15 2
     4    17    16 2
     5    15    16 1
     6    15    14 1
     7    20    14 2
     8    20    21 1
     9    14    13 1
    10    21    22 ar
    11    21    28 ar
    12    22    23 ar
    13    13    28 1
    14    13     7 1
    15    28    27 ar
    16     6     7 ar
    17     6     5 ar
    18     7     8 ar
    19    23    24 1
    20    23    25 ar
    21     4     5 ar
    22     4     2 ar
    23     5    10 ar
    24     8     9 ar
    25    27    25 ar
    26     1     2 1
    27     2     3 ar
    28    25    26 1
    29    10     9 ar
    30    10    11 ar
    31     3    11 ar
    32    11    12 1
    33     1    29 1
    34     1    30 1
    35     6    31 1
    36     8    32 1
    37     9    33 1
    38    12    34 1
    39    12    35 1
    40    17    36 1
    41    19    37 1
    42    22    38 1
    43    24    39 1
    44    24    40 1
    45    24    41 1
    46    26    42 1
    47    26    43 1
    48    26    44 1
    49    27    45 1
@<TRIPOS>SUBSTRUCTURE
     1 1VO         1 TEMP              0 ****  ****    0 ROOT
