@<TRIPOS>MOLECULE
1VO
   45    49     1     0     0
SMALL
bcc


@<TRIPOS>ATOM
      1 N12          0.0000     0.0000     0.0000 nv         1 1VO      -0.641500
      2 C3           1.3830     0.0000     0.0000 ca         1 1VO       0.717900
      3 N2           2.0200     0.0000     1.1680 nb         1 1VO      -0.640000
      4 N4           2.0160    -0.0070    -1.1580 nb         1 1VO      -0.614000
      5 C5           3.3570    -0.0060    -1.2000 ca         1 1VO       0.407600
      6 C10          4.0570    -0.0130    -2.4110 ca         1 1VO      -0.098300
      7 C9           5.4370    -0.0120    -2.3960 ca         1 1VO      -0.146200
      8 C8           6.1390    -0.0070    -1.1860 ca         1 1VO      -0.097000
      9 C7           5.4770    -0.0010     0.0040 ca         1 1VO      -0.055000
     10 C6           4.0770    -0.0000     0.0200 ca         1 1VO      -0.276600
     11 C1           3.3440     0.0010     1.2330 ca         1 1VO       0.556200
     12 N11          3.9910     0.0020     2.4500 nv         1 1VO      -0.652500
     13 N13          6.1420    -0.0180    -3.6040 na         1 1VO       0.442600
     14 C17          6.1450    -1.0210    -4.5400 cc         1 1VO       0.177800
     15 C22          5.3980    -2.2890    -4.4300 cc         1 1VO       0.314000
     16 N26          4.6300    -2.5890    -3.3890 nc         1 1VO      -0.569000
     17 C25          4.0290    -3.7260    -3.4100 cd         1 1VO       0.466300
     18 S24          4.4030    -4.5760    -4.8450 ss         1 1VO      -0.308300
     19 C23          5.4270    -3.2480    -5.3840 cd         1 1VO      -0.060400
     20 N16          6.9120    -0.6820    -5.5480 nd         1 1VO      -0.513100
     21 C15          7.4450     0.5450    -5.3260 ca         1 1VO       0.063400
     22 C21          8.3110     1.3620    -6.0590 ca         1 1VO      -0.039000
     23 C20          8.6820     2.5900    -5.5570 ca         1 1VO      -0.102300
     24 C28          9.6150     3.4690    -6.3470 c3         1 1VO       0.065200
     25 C19          8.2020     3.0230    -4.3290 ca         1 1VO      -0.075300
     26 C27          8.6180     4.3700    -3.7970 c3         1 1VO       0.063200
     27 C18          7.3460     2.2300    -3.5930 ca         1 1VO      -0.085000
     28 C14          6.9620     0.9900    -4.0820 ca         1 1VO      -0.264200
     29 H1          -0.5000     0.8660    -0.0390 hn         1 1VO       0.280300
     30 H2          -0.5000    -0.8660     0.0380 hn         1 1VO       0.280300
     31 H3           3.5210    -0.0170    -3.3520 ha         1 1VO       0.132000
     32 H4           7.2220    -0.0060    -1.1950 ha         1 1VO       0.117000
     33 H5           6.0310     0.0040     0.9350 ha         1 1VO       0.116000
     34 H6           4.2100     0.8690     2.8990 hn         1 1VO       0.282800
     35 H7           4.2040    -0.8640     2.9040 hn         1 1VO       0.282800
     36 H8           3.3770    -4.0950    -2.6270 h5         1 1VO       0.026100
     37 H9           5.9850    -3.2070    -6.3110 h4         1 1VO       0.178000
     38 H10          8.7520     0.9970    -6.9780 ha         1 1VO       0.114000
     39 H11         10.5100     3.6600    -5.7670 hc         1 1VO       0.008033
     40 H12          9.1230     4.4080    -6.5710 hc         1 1VO       0.008033
     41 H13          9.8830     2.9720    -7.2720 hc         1 1VO       0.008033
     42 H14          9.6930     4.3900    -3.6650 hc         1 1VO       0.008367
     43 H15          8.1340     4.5460    -2.8440 hc         1 1VO       0.008367
     44 H16          8.3250     5.1410    -4.4980 hc         1 1VO       0.008367
     45 H17          6.9750     2.5740    -2.6350 ha         1 1VO       0.109000
@<TRIPOS>BOND
     1     1     2 1   
     2     1    29 1   
     3     1    30 1   
     4     2     3 ar  
     5     2     4 ar  
     6     3    11 ar  
     7     4     5 ar  
     8     5     6 ar  
     9     5    10 ar  
    10     6     7 ar  
    11     6    31 1   
    12     7     8 ar  
    13     7    13 1   
    14     8     9 ar  
    15     8    32 1   
    16     9    10 ar  
    17     9    33 1   
    18    10    11 ar  
    19    11    12 1   
    20    12    34 1   
    21    12    35 1   
    22    13    14 1   
    23    13    28 1   
    24    14    15 1   
    25    14    20 2   
    26    15    16 1   
    27    15    19 2   
    28    16    17 2   
    29    17    18 1   
    30    17    36 1   
    31    18    19 1   
    32    19    37 1   
    33    20    21 1   
    34    21    22 ar  
    35    21    28 ar  
    36    22    23 ar  
    37    22    38 1   
    38    23    24 1   
    39    23    25 ar  
    40    24    39 1   
    41    24    40 1   
    42    24    41 1   
    43    25    26 1   
    44    25    27 ar  
    45    26    42 1   
    46    26    43 1   
    47    26    44 1   
    48    27    28 ar  
    49    27    45 1   
@<TRIPOS>SUBSTRUCTURE
     1 1VO         1 TEMP              0 ****  ****    0 ROOT
