@<TRIPOS>MOLECULE
1VO
   45    49     1     0     0
SMALL
bcc


@<TRIPOS>ATOM
      1 N12         -0.0140     0.2480     0.1950 nv         1 1VO      -0.927500
      2 C3           1.3840     0.2030     0.1370 ca         1 1VO       0.908900
      3 N2           2.0460    -0.0250     1.3540 nb         1 1VO      -0.823000
      4 N4           1.9800     0.3200    -1.0860 nb         1 1VO      -0.791000
      5 C5           3.3430     0.1550    -1.1250 ca         1 1VO       0.492600
      6 C10          4.0080     0.2360    -2.3900 ca         1 1VO      -0.205300
      7 C9           5.3860     0.0900    -2.4720 ca         1 1VO       0.068800
      8 C8           6.1510    -0.1400    -1.2870 ca         1 1VO      -0.150000
      9 C7           5.5230    -0.2280    -0.0690 ca         1 1VO      -0.067000
     10 C6           4.1230    -0.0870     0.0460 ca         1 1VO      -0.334600
     11 C1           3.3880    -0.1580     1.3060 ca         1 1VO       0.726200
     12 N11          4.0780    -0.3010     2.5030 nv         1 1VO      -0.944500
     13 N13          6.0400     0.2060    -3.7170 na         1 1VO      -0.090400
     14 C17          7.0060    -0.6620    -4.3030 cc         1 1VO       0.396800
     15 C22          7.3790    -1.9610    -3.7510 cc         1 1VO       0.309000
     16 N26          6.5530    -2.6670    -2.8700 nc         1 1VO      -0.603000
     17 C25          7.1260    -3.8270    -2.5810 cd         1 1VO       0.363300
     18 S24          8.6380    -4.1060    -3.3350 ss         1 1VO      -0.072300
     19 C23          8.5580    -2.6230    -4.0960 cd         1 1VO      -0.202400
     20 N16          7.5090    -0.1740    -5.4600 nd         1 1VO      -0.560100
     21 C15          6.8650     1.0590    -5.6670 ca         1 1VO       0.067400
     22 C21          6.9870     1.9990    -6.6990 ca         1 1VO      -0.071000
     23 C20          6.2110     3.1510    -6.6540 ca         1 1VO      -0.096300
     24 C28          6.3290     4.1540    -7.7400 c3         1 1VO      -0.048800
     25 C19          5.3040     3.3860    -5.5870 ca         1 1VO      -0.058300
     26 C27          4.4940     4.6280    -5.5810 c3         1 1VO      -0.052800
     27 C18          5.1600     2.4720    -4.5490 ca         1 1VO      -0.126000
     28 C14          5.9360     1.3090    -4.5830 ca         1 1VO      -0.062200
     29 H1          -0.4170     0.4380     1.0820 hn         1 1VO       0.426300
     30 H2          -0.4760     0.6410    -0.5920 hn         1 1VO       0.426300
     31 H3           3.4010     0.4140    -3.2930 ha         1 1VO       0.166000
     32 H4           7.2430    -0.2510    -1.3570 ha         1 1VO       0.145000
     33 H5           6.1440    -0.3980     0.8240 ha         1 1VO       0.126000
     34 H6           4.9650    -0.7410     2.4520 hn         1 1VO       0.423300
     35 H7           3.5490    -0.4770     3.3260 hn         1 1VO       0.423300
     36 H8           6.6490    -4.5470    -1.9100 h5         1 1VO       0.059100
     37 H9           9.3140    -2.2310    -4.7770 h4         1 1VO       0.203000
     38 H10          7.6870     1.8180    -7.5280 ha         1 1VO       0.147000
     39 H11          5.3410     4.2930    -8.2480 hc         1 1VO       0.042700
     40 H12          7.0780     3.8380    -8.5070 hc         1 1VO       0.042700
     41 H13          6.6460     5.1420    -7.3220 hc         1 1VO       0.042700
     42 H14          5.1630     5.5260    -5.5730 hc         1 1VO       0.045033
     43 H15          3.8570     4.6790    -6.4990 hc         1 1VO       0.045033
     44 H16          3.8280     4.6770    -4.6850 hc         1 1VO       0.045033
     45 H17          4.4550     2.6520    -3.7240 ha         1 1VO       0.146000
@<TRIPOS>BOND
     1     1     2 1   
     2     1    29 1   
     3     1    30 1   
     4     2     3 ar  
     5     2     4 ar  
     6     3    11 ar  
     7     4     5 ar  
     8     5     6 ar  
     9     5    10 ar  
    10     6     7 ar  
    11     6    31 1   
    12     7     8 ar  
    13     7    13 1   
    14     8     9 ar  
    15     8    32 1   
    16     9    10 ar  
    17     9    33 1   
    18    10    11 ar  
    19    11    12 1   
    20    12    34 1   
    21    12    35 1   
    22    13    14 1   
    23    13    28 1   
    24    14    15 1   
    25    14    20 2   
    26    15    16 1   
    27    15    19 2   
    28    16    17 2   
    29    17    18 1   
    30    17    36 1   
    31    18    19 1   
    32    19    37 1   
    33    20    21 1   
    34    21    22 ar  
    35    21    28 ar  
    36    22    23 ar  
    37    22    38 1   
    38    23    24 1   
    39    23    25 ar  
    40    24    39 1   
    41    24    40 1   
    42    24    41 1   
    43    25    26 1   
    44    25    27 ar  
    45    26    42 1   
    46    26    43 1   
    47    26    44 1   
    48    27    28 ar  
    49    27    45 1   
@<TRIPOS>SUBSTRUCTURE
     1 1VO         1 TEMP              0 ****  ****    0 ROOT
