@<TRIPOS>MOLECULE
1VQ
   27    27     1     0     0
SMALL
bcc


@<TRIPOS>ATOM
      1 S1          -0.0220    -0.3060    -0.4680 s6         1 1VQ       1.656400
      2 O1           0.5250    -1.5420    -0.6460 o          1 1VQ      -0.569300
      3 O2           0.4340     0.6410     0.3950 o          1 1VQ      -0.569300
      4 O3          -0.2800     0.3070    -1.9540 os         1 1VQ      -0.565500
      5 N1          -1.7450    -0.7400     0.0080 nz         1 1VQ      -0.793500
      6 C1           0.4290     1.4170    -2.4990 c3         1 1VQ       0.180400
      7 C2          -0.5840     2.4810    -2.9560 c3         1 1VQ       0.017300
      8 N3          -0.1950     5.9410    -1.7620 nc         1 1VQ      -0.652000
      9 C3          -0.9550     3.9610    -0.9120 cd         1 1VQ      -0.383800
     10 C4          -0.7360     5.3500    -0.6510 cc         1 1VQ       0.487200
     11 C5          -0.0680     4.9630    -2.7200 cd         1 1VQ       0.515800
     12 C6           0.4630     5.1750    -4.0920 c3         1 1VQ      -0.154400
     13 N2          -0.5210     3.7250    -2.2460 na         1 1VQ      -0.187900
     14 O4          -1.8800     3.2770     1.0660 o          1 1VQ      -0.274500
     15 O5          -1.5960     1.8130    -0.4110 o          1 1VQ      -0.274500
     16 N4          -1.5060     2.9740    -0.0270 no         1 1VQ       0.391200
     17 H1          -1.8460    -1.7170     0.2830 hn         1 1VQ       0.480467
     18 H2          -2.0640    -0.1420     0.7790 hn         1 1VQ       0.480467
     19 H3           0.9650     0.9930    -3.3950 h1         1 1VQ       0.090700
     20 H4           1.1660     1.8060    -1.7460 h1         1 1VQ       0.090700
     21 H5          -0.3960     2.7000    -4.0480 h1         1 1VQ       0.103700
     22 H6          -1.6250     2.0510    -2.8500 h1         1 1VQ       0.103700
     23 H7          -0.9510     5.8930     0.2770 h4         1 1VQ       0.089100
     24 H8           0.8200     6.2320    -4.2040 hc         1 1VQ       0.085700
     25 H9          -0.3440     4.9900    -4.8470 hc         1 1VQ       0.085700
     26 H10          1.3200     4.4860    -4.2910 hc         1 1VQ       0.085700
     27 H13         -2.3890    -0.5610    -0.7680 hn         1 1VQ       0.480467
@<TRIPOS>BOND
     1     1     2 2   
     2     1     3 2   
     3     1     4 1   
     4     1     5 1   
     5     4     6 1   
     6     5    17 1   
     7     5    18 1   
     8     5    27 1   
     9     6     7 1   
    10     6    19 1   
    11     6    20 1   
    12     7    13 1   
    13     7    21 1   
    14     7    22 1   
    15     8    10 1   
    16     8    11 2   
    17     9    10 2   
    18     9    13 1   
    19     9    16 1   
    20    10    23 1   
    21    11    12 1   
    22    11    13 1   
    23    12    24 1   
    24    12    25 1   
    25    12    26 1   
    26    14    16 1   
    27    15    16 1   
@<TRIPOS>SUBSTRUCTURE
     1 1VQ         1 TEMP              0 ****  ****    0 ROOT
