@<TRIPOS>MOLECULE
molecule
   27    27     1     0     0
SMALL
bcc


@<TRIPOS>ATOM
      1 S1           0.0000     0.0000     0.0000 s6         1 1VQ       1.499400
      2 O1           1.4200     0.0000     0.0000 o          1 1VQ      -0.513300
      3 O2          -0.7780     0.0000     1.1900 o          1 1VQ      -0.513300
      4 O3          -0.4300     1.2250    -0.7930 os         1 1VQ      -0.511500
      5 N1          -0.4680    -1.3330    -0.8640 nz         1 1VQ      -0.834500
      6 C1          -1.8330     1.4930    -0.7360 c3         1 1VQ       0.117400
      7 C2          -2.1490     2.7400    -1.5640 c3         1 1VQ       0.049300
      8 N3          -5.6920     3.0000    -1.9800 nc         1 1VQ      -0.665000
      9 C3          -4.2270     3.7980    -0.5840 cc         1 1VQ      -0.324800
     10 C4          -5.5370     3.7760    -0.8970 cd         1 1VQ       0.447200
     11 C5          -4.5280     2.5410    -2.3500 cd         1 1VQ       0.454800
     12 C6          -4.2760     1.6320    -3.5260 c3         1 1VQ      -0.115400
     13 N2          -3.5870     3.0140    -1.5060 na         1 1VQ      -0.191900
     14 O4          -2.3960     4.4640     0.7130 o          1 1VQ      -0.186000
     15 O5          -4.2870     5.1950     1.2930 o          1 1VQ      -0.186000
     16 H1          -0.3240    -1.1650    -1.8410 hn         1 1VQ       0.497800
     17 H2          -1.4370    -1.5160    -0.6970 hn         1 1VQ       0.497800
     18 H3          -2.3790     0.6460    -1.1350 h1         1 1VQ       0.074700
     19 H4          -2.1270     1.6590     0.2940 h1         1 1VQ       0.074700
     20 H5          -1.8550     2.5740    -2.5940 h1         1 1VQ       0.110200
     21 H6          -1.6040     3.5860    -1.1650 h1         1 1VQ       0.110200
     22 H7          -6.3270     4.2940    -0.3670 h4         1 1VQ       0.087100
     23 H8          -4.1080     0.6220    -3.1730 hc         1 1VQ       0.065033
     24 H9          -3.4030     1.9760    -4.0680 hc         1 1VQ       0.065033
     25 H10         -5.1380     1.6460    -4.1840 hc         1 1VQ       0.065033
     26 H13          0.0760    -2.1230    -0.5790 hn         1 1VQ       0.497800
     27 N4          -3.6000     4.5280     0.5400 no         1 1VQ       0.327200
@<TRIPOS>BOND
     1    15    27 1
     2    14    27 1
     3    27     9 1
     4     9    13 1
     5     9    10 2
     6     7    13 1
     7     7     6 1
     8    13    11 1
     9    10     8 1
    10    11     8 2
    11    11    12 1
    12     6     4 1
    13     4     1 1
    14     5     1 1
    15     1     3 2
    16     1     2 2
    17     5    16 1
    18     5    17 1
    19     6    18 1
    20     6    19 1
    21     7    20 1
    22     7    21 1
    23    10    22 1
    24    12    23 1
    25    12    24 1
    26    12    25 1
    27    26     5 1
@<TRIPOS>SUBSTRUCTURE
     1 1VQ         1 TEMP              0 ****  ****    0 ROOT
