@<TRIPOS>MOLECULE
1VQ
   27    27     1     0     0
SMALL
bcc


@<TRIPOS>ATOM
      1 S1           0.0000     0.0000     0.0000 s6         1 1VQ       1.281400
      2 O1           1.4200     0.0000     0.0000 o          1 1VQ      -0.494800
      3 O2          -0.7780     0.0000     1.1900 o          1 1VQ      -0.494800
      4 O3          -0.4300     1.2250    -0.7930 os         1 1VQ      -0.433500
      5 N1          -0.4680    -1.3330    -0.8640 nz         1 1VQ      -0.176500
      6 C1          -1.8330     1.4930    -0.7360 c3         1 1VQ       0.238400
      7 C2          -2.1490     2.7400    -1.5640 c3         1 1VQ      -0.071700
      8 N3          -5.6920     3.0000    -1.9800 nc         1 1VQ      -0.594000
      9 C3          -4.2270     3.7980    -0.5840 cd         1 1VQ      -0.778800
     10 C4          -5.5370     3.7760    -0.8970 cc         1 1VQ       0.480200
     11 C5          -4.5280     2.5410    -2.3500 cd         1 1VQ       0.245800
     12 C6          -4.2760     1.6320    -3.5260 c3         1 1VQ       0.004600
     13 N2          -3.5870     3.0140    -1.5060 na         1 1VQ       0.318100
     14 O4          -2.3960     4.4640     0.7130 o          1 1VQ      -0.443000
     15 O5          -4.2870     5.1950     1.2930 o          1 1VQ      -0.443000
     16 H1          -0.3240    -1.1650    -1.8410 hn         1 1VQ       0.323467
     17 H2          -1.4370    -1.5160    -0.6970 hn         1 1VQ       0.323467
     18 H3          -2.3790     0.6460    -1.1350 h1         1 1VQ       0.022200
     19 H4          -2.1270     1.6590     0.2940 h1         1 1VQ       0.022200
     20 H5          -1.8550     2.5740    -2.5940 h1         1 1VQ       0.078700
     21 H6          -1.6040     3.5860    -1.1650 h1         1 1VQ       0.078700
     22 H7          -6.3270     4.2940    -0.3670 h4         1 1VQ       0.035100
     23 H8          -4.1080     0.6220    -3.1730 hc         1 1VQ       0.017700
     24 H9          -3.4030     1.9760    -4.0680 hc         1 1VQ       0.017700
     25 H10         -5.1380     1.6460    -4.1840 hc         1 1VQ       0.017700
     26 H13          0.0760    -2.1230    -0.5790 hn         1 1VQ       0.323467
     27 N4          -3.6000     4.5280     0.5400 no         1 1VQ       1.100200
@<TRIPOS>BOND
     1     1     2 2   
     2     1     3 2   
     3     1     4 1   
     4     1     5 1   
     5     4     6 1   
     6     5    16 1   
     7     5    17 1   
     8     5    26 1   
     9     6     7 1   
    10     6    18 1   
    11     6    19 1   
    12     7    13 1   
    13     7    20 1   
    14     7    21 1   
    15     8    10 1   
    16     8    11 2   
    17     9    10 2   
    18     9    13 1   
    19     9    27 1   
    20    10    22 1   
    21    11    12 1   
    22    11    13 1   
    23    12    23 1   
    24    12    24 1   
    25    12    25 1   
    26    14    27 1   
    27    15    27 1   
@<TRIPOS>SUBSTRUCTURE
     1 1VQ         1 TEMP              0 ****  ****    0 ROOT
