@<TRIPOS>MOLECULE
1VS
   60    63     1     0     0
SMALL
bcc


@<TRIPOS>ATOM
      1 C01         -0.4100     1.3420    -0.1070 ca         1 1VS      -0.125000
      2 C02          0.7570     1.2480     0.6660 ca         1 1VS      -0.138000
      3 C03          1.2840     2.3870     1.2730 ca         1 1VS      -0.118000
      4 C04          0.6560     3.6230     1.1140 ca         1 1VS      -0.094000
      5 C05         -0.5070     3.7200     0.3470 ca         1 1VS      -0.118000
      6 C06         -1.0410     2.5860    -0.2630 ca         1 1VS      -0.138000
      7 S           -1.2300    -1.5330    -2.6620 ss         1 1VS       0.327200
      8 C07         -0.5110    -0.1670    -2.0890 cc         1 1VS      -0.208100
      9 C08         -0.9150     0.1730    -0.8140 cd         1 1VS       0.014000
     10 C09         -1.8770    -0.7720    -0.3090 cd         1 1VS      -0.288600
     11 C10         -2.5160    -0.7380     0.9800 c          1 1VS       0.605700
     12 N01         -2.1400     0.4030     1.8910 ny         1 1VS      -0.665800
     13 C12         -2.8440     0.3750     3.2100 c3         1 1VS       0.114800
     14 C11         -2.4450     1.5330     4.0990 c3         1 1VS      -0.137100
     15 O3          -3.3400    -1.5380     1.4310 o          1 1VS      -0.506100
     16 C15         -2.1350    -1.7900    -1.2740 cc         1 1VS       0.048500
     17 N02         -3.0180    -2.8450    -1.0820 ns         1 1VS      -0.411100
     18 C13         -3.2480    -3.8150    -2.0370 c          1 1VS       0.636100
     19 C1          -4.2490    -4.9220    -1.6750 c3         1 1VS       0.028800
     20 N12         -4.4450    -5.8670    -2.8060 ny         1 1VS      -0.754000
     21 C14         -5.3710    -6.9900    -2.4450 c3         1 1VS       0.097800
     22 C23         -5.6300    -7.9310    -3.6290 c3         1 1VS       0.003800
     23 O11         -2.6800    -3.8160    -3.1460 o          1 1VS      -0.565100
     24 C16         -8.6420    -9.9180    -2.6570 ca         1 1VS      -0.048200
     25 C17         -8.0430    -8.6450    -2.9870 ca         1 1VS      -0.086800
     26 C18         -6.6390    -8.9100    -3.2230 cc         1 1VS      -0.235400
     27 C19         -6.4430   -10.2880    -3.0460 cd         1 1VS      -0.043100
     28 N           -7.6370   -10.8940    -2.6940 na         1 1VS      -0.161400
     29 C20         -8.8460    -7.5030    -3.0290 ca         1 1VS      -0.124000
     30 C21        -10.1970    -7.6210    -2.7440 ca         1 1VS      -0.122000
     31 C22        -10.7700    -8.8650    -2.4150 ca         1 1VS      -0.104000
     32 C          -10.0120   -10.0240    -2.3670 ca         1 1VS      -0.112000
     33 H1           1.2820     0.2840     0.7590 ha         1 1VS       0.150000
     34 H2           2.2140     2.3130     1.8620 ha         1 1VS       0.166000
     35 H3           1.0870     4.5260     1.5780 ha         1 1VS       0.170000
     36 H4          -0.9930     4.7000     0.2040 ha         1 1VS       0.166000
     37 H5          -1.9330     2.6760    -0.9030 ha         1 1VS       0.150000
     38 H7          -2.3480     1.2890     1.4020 hn         1 1VS       0.471800
     39 H8          -2.5990    -0.6090     3.7060 hx         1 1VS       0.110700
     40 H9          -3.9530     0.3950     3.0050 hx         1 1VS       0.110700
     41 H10         -3.0140     1.4370     5.0610 hc         1 1VS       0.082033
     42 H11         -1.3540     1.5170     4.3400 hc         1 1VS       0.082033
     43 H12         -2.7040     2.5180     3.6410 hc         1 1VS       0.082033
     44 H13         -3.5000    -2.8910    -0.2040 hn         1 1VS       0.365500
     45 H14         -3.8660    -5.5020    -0.7840 hx         1 1VS       0.136200
     46 H15         -5.2490    -4.4680    -1.4090 hx         1 1VS       0.136200
     47 H16         -3.5320    -6.2470    -3.0940 hn         1 1VS       0.465300
     48 H18         -4.9090    -7.5610    -1.5910 hx         1 1VS       0.112700
     49 H19         -6.3510    -6.5440    -2.1040 hx         1 1VS       0.112700
     50 H20         -4.6780    -8.4440    -3.9310 hc         1 1VS       0.068200
     51 H21         -6.0080    -7.3430    -4.5110 hc         1 1VS       0.068200
     52 H22         -5.5260   -10.8740    -3.1570 h4         1 1VS       0.177000
     53 H23         -7.7810   -11.8640    -2.5660 hn         1 1VS       0.321700
     54 H24         -8.4150    -6.5320    -3.3050 ha         1 1VS       0.108000
     55 H25        -10.8450    -6.7320    -2.7820 ha         1 1VS       0.143000
     56 H26        -11.8500    -8.9140    -2.1990 ha         1 1VS       0.154000
     57 H27        -10.4670   -10.9930    -2.1190 ha         1 1VS       0.155000
     58 H012        -1.1190     0.3770     2.0380 hn         1 1VS       0.471800
     59 H122        -4.8230    -5.3550    -3.6160 hn         1 1VS       0.465300
     60 H6           0.2170     0.4100    -2.6730 h4         1 1VS       0.223000
@<TRIPOS>BOND
     1     1     2 ar  
     2     1     6 ar  
     3     1     9 1   
     4     2     3 ar  
     5     2    33 1   
     6     3     4 ar  
     7     3    34 1   
     8     4     5 ar  
     9     4    35 1   
    10     5     6 ar  
    11     5    36 1   
    12     6    37 1   
    13     7     8 1   
    14     7    16 1   
    15     8     9 2   
    16     8    60 1   
    17     9    10 1   
    18    10    11 1   
    19    10    16 2   
    20    11    12 1   
    21    11    15 2   
    22    12    13 1   
    23    12    38 1   
    24    12    58 1   
    25    13    14 1   
    26    13    39 1   
    27    13    40 1   
    28    14    41 1   
    29    14    42 1   
    30    14    43 1   
    31    16    17 1   
    32    17    18 1   
    33    17    44 1   
    34    18    19 1   
    35    18    23 2   
    36    19    20 1   
    37    19    45 1   
    38    19    46 1   
    39    20    21 1   
    40    20    47 1   
    41    20    59 1   
    42    21    22 1   
    43    21    48 1   
    44    21    49 1   
    45    22    26 1   
    46    22    50 1   
    47    22    51 1   
    48    24    25 ar  
    49    24    28 1   
    50    24    32 ar  
    51    25    26 1   
    52    25    29 ar  
    53    26    27 2   
    54    27    28 1   
    55    27    52 1   
    56    28    53 1   
    57    29    30 ar  
    58    29    54 1   
    59    30    31 ar  
    60    30    55 1   
    61    31    32 ar  
    62    31    56 1   
    63    32    57 1   
@<TRIPOS>SUBSTRUCTURE
     1 1VS         1 TEMP              0 ****  ****    0 ROOT
