@<TRIPOS>MOLECULE
molecule
   58    61     1     0     0
SMALL
bcc


@<TRIPOS>ATOM
      1 C01          0.0000     0.0000     0.0000 ca         1 1VS      -0.032000
      2 C02          1.3940     0.0000     0.0000 ca         1 1VS      -0.111500
      3 C03          2.0810     0.0000     1.1970 ca         1 1VS      -0.132500
      4 C04          1.3880    -0.0010     2.3950 ca         1 1VS      -0.127000
      5 C05          0.0050    -0.0020     2.4000 ca         1 1VS      -0.132500
      6 C06         -0.6920     0.0050     1.2100 ca         1 1VS      -0.111500
      7 S           -1.5700     0.5570    -3.6360 ss         1 1VS       0.036200
      8 C07         -0.4950     0.8560    -2.2830 cc         1 1VS      -0.142100
      9 C08         -0.7440     0.0010    -1.2830 cd         1 1VS      -0.010000
     10 C09         -1.8210    -0.9250    -1.5900 cd         1 1VS      -0.241600
     11 C10         -2.2870    -1.9600    -0.6650 c          1 1VS       0.692700
     12 N01         -1.7280    -3.1860    -0.6880 ns         1 1VS      -0.581900
     13 C12         -2.1950    -4.2210     0.2380 c3         1 1VS       0.108000
     14 C11         -1.4020    -5.5090     0.0060 c3         1 1VS      -0.112100
     15 O3          -3.1790    -1.7120     0.1250 o          1 1VS      -0.607100
     16 C15         -2.3510    -0.7280    -2.8350 cc         1 1VS       0.093500
     17 N02         -3.3890    -1.4740    -3.3730 ns         1 1VS      -0.437100
     18 C13         -3.8430    -1.2000    -4.6130 c          1 1VS       0.648100
     19 C1          -4.9700    -2.0120    -5.1970 c3         1 1VS       0.091800
     20 N12         -5.2780    -1.5200    -6.5480 n7         1 1VS      -0.801200
     21 C14         -6.3740    -2.2890    -7.1510 c3         1 1VS       0.149800
     22 C23         -6.6650    -1.7500    -8.5530 c3         1 1VS       0.003800
     23 O11         -3.3440    -0.3020    -5.2570 o          1 1VS      -0.566100
     24 C16        -10.2550    -3.3360    -9.3450 ca         1 1VS      -0.035200
     25 C17         -9.5670    -2.3510    -8.6120 ca         1 1VS      -0.083800
     26 C18         -8.1500    -2.5090    -8.9540 cc         1 1VS      -0.159400
     27 C19         -8.0670    -3.5260    -9.8260 cd         1 1VS      -0.115100
     28 N           -9.3140    -4.0330   -10.0720 na         1 1VS      -0.187400
     29 C20        -10.2740    -1.4850    -7.7770 ca         1 1VS      -0.078000
     30 C21        -11.6310    -1.5990    -7.6740 ca         1 1VS      -0.158000
     31 C22        -12.3150    -2.5700    -8.3930 ca         1 1VS      -0.107000
     32 C          -11.6370    -3.4320    -9.2280 ca         1 1VS      -0.146000
     33 H1           1.9370    -0.0010    -0.9370 ha         1 1VS       0.144500
     34 H2           3.1640     0.0000     1.1990 ha         1 1VS       0.130000
     35 H3           1.9310    -0.0040     3.3320 ha         1 1VS       0.127000
     36 H4          -0.5320    -0.0000     3.3400 ha         1 1VS       0.130000
     37 H5          -1.7750     0.0050     1.2150 ha         1 1VS       0.144500
     38 H7          -1.0030    -3.3930    -1.3450 hn         1 1VS       0.319500
     39 H8          -2.0490    -3.8860     1.2580 h1         1 1VS       0.052200
     40 H9          -3.2480    -4.4100     0.0670 h1         1 1VS       0.052200
     41 H10         -1.5640    -5.8560    -1.0080 hc         1 1VS       0.042367
     42 H11         -0.3470    -5.3160     0.1570 hc         1 1VS       0.042367
     43 H12         -1.7330    -6.2680     0.7040 hc         1 1VS       0.042367
     44 H13         -3.8140    -2.2010    -2.8330 hn         1 1VS       0.339500
     45 H14         -4.6760    -3.0530    -5.2500 h1         1 1VS       0.055700
     46 H15         -5.8480    -1.9160    -4.5700 h1         1 1VS       0.055700
     47 H16         -4.4620    -1.5940    -7.1240 hn         1 1VS       0.365800
     48 H18         -6.0900    -3.3320    -7.2170 h1         1 1VS       0.037700
     49 H19         -7.2610    -2.1940    -6.5360 h1         1 1VS       0.037700
     50 H20         -6.9500    -0.7060    -8.4870 hc         1 1VS       0.060700
     51 H21         -5.7780    -1.8440    -9.1670 hc         1 1VS       0.060700
     52 H22         -7.1500    -3.8860   -10.2760 h4         1 1VS       0.163000
     53 H23         -9.5140    -4.7960   -10.6880 hn         1 1VS       0.293700
     54 H24         -9.7480    -0.7250    -7.2120 ha         1 1VS       0.134000
     55 H25        -12.1790    -0.9290    -7.0220 ha         1 1VS       0.130000
     56 H26        -13.3910    -2.6470    -8.3010 ha         1 1VS       0.130000
     57 H27        -12.1790    -4.1860    -9.7860 ha         1 1VS       0.125000
     58 H6           0.2660     1.6260    -2.2600 h4         1 1VS       0.177000
@<TRIPOS>BOND
     1    14    13 1
     2    13    12 1
     3    12    11 1
     4     5     6 ar
     5     5     4 ar
     6     6     1 ar
     7     4     3 ar
     8     1     9 1
     9     1     2 ar
    10     8     9 2
    11     8     7 1
    12     9    10 1
    13    10    16 2
    14    10    11 1
    15    16    17 1
    16    16     7 1
    17    17    18 1
    18    11    15 2
    19     3     2 ar
    20    19    18 1
    21    19    20 1
    22    31    30 ar
    23    31    32 ar
    24    18    23 2
    25    30    29 ar
    26    32    24 ar
    27    21    20 1
    28    21    22 1
    29    29    25 ar
    30    24    25 ar
    31    24    28 1
    32    25    26 1
    33    28    27 1
    34    26    27 2
    35    26    22 1
    36     2    33 1
    37     3    34 1
    38     4    35 1
    39     5    36 1
    40     6    37 1
    41     8    58 1
    42    12    38 1
    43    13    39 1
    44    13    40 1
    45    14    41 1
    46    14    42 1
    47    14    43 1
    48    17    44 1
    49    19    45 1
    50    19    46 1
    51    20    47 1
    52    21    48 1
    53    21    49 1
    54    22    50 1
    55    22    51 1
    56    27    52 1
    57    28    53 1
    58    29    54 1
    59    30    55 1
    60    31    56 1
    61    32    57 1
@<TRIPOS>SUBSTRUCTURE
     1 1VS         1 TEMP              0 ****  ****    0 ROOT
