@<TRIPOS>MOLECULE
1VS
   58    61     1     0     0
SMALL
bcc


@<TRIPOS>ATOM
      1 C01          0.0000     0.0000     0.0000 ca         1 1VS      -0.034000
      2 C02          1.3940     0.0000     0.0000 ca         1 1VS      -0.091500
      3 C03          2.0810     0.0000     1.1970 ca         1 1VS      -0.103500
      4 C04          1.3880    -0.0010     2.3950 ca         1 1VS      -0.100000
      5 C05          0.0050    -0.0020     2.4000 ca         1 1VS      -0.103500
      6 C06         -0.6920     0.0050     1.2100 ca         1 1VS      -0.091500
      7 S           -1.5700     0.5570    -3.6360 ss         1 1VS      -0.141800
      8 C07         -0.4950     0.8560    -2.2830 cc         1 1VS      -0.046100
      9 C08         -0.7440     0.0010    -1.2830 cd         1 1VS       0.003000
     10 C09         -1.8210    -0.9250    -1.5900 cd         1 1VS      -0.243600
     11 C10         -2.2870    -1.9600    -0.6650 c          1 1VS       0.616700
     12 N01         -1.7280    -3.1860    -0.6880 ns         1 1VS      -0.194900
     13 C12         -2.1950    -4.2210     0.2380 c3         1 1VS       0.048000
     14 C11         -1.4020    -5.5090     0.0060 c3         1 1VS      -0.007100
     15 O3          -3.1790    -1.7120     0.1250 o          1 1VS      -0.646100
     16 C15         -2.3510    -0.7280    -2.8350 cc         1 1VS       0.017500
     17 N02         -3.3890    -1.4740    -3.3730 ns         1 1VS       0.022900
     18 C13         -3.8430    -1.2000    -4.6130 c          1 1VS       0.534100
     19 C1          -4.9700    -2.0120    -5.1970 c3         1 1VS       0.081800
     20 N12         -5.2780    -1.5200    -6.5480 n7         1 1VS      -0.560200
     21 C14         -6.3740    -2.2890    -7.1510 c3         1 1VS       0.122800
     22 C23         -6.6650    -1.7500    -8.5530 c3         1 1VS       0.094800
     23 O11         -3.3440    -0.3020    -5.2570 o          1 1VS      -0.579100
     24 C16        -10.2550    -3.3360    -9.3450 ca         1 1VS      -0.225200
     25 C17         -9.5670    -2.3510    -8.6120 ca         1 1VS      -0.076800
     26 C18         -8.1500    -2.5090    -8.9540 cc         1 1VS      -0.151400
     27 C19         -8.0670    -3.5260    -9.8260 cd         1 1VS      -0.290100
     28 N           -9.3140    -4.0330   -10.0720 na         1 1VS       0.348600
     29 C20        -10.2740    -1.4850    -7.7770 ca         1 1VS      -0.044000
     30 C21        -11.6310    -1.5990    -7.6740 ca         1 1VS      -0.134000
     31 C22        -12.3150    -2.5700    -8.3930 ca         1 1VS      -0.084000
     32 C          -11.6370    -3.4320    -9.2280 ca         1 1VS      -0.105000
     33 H1           1.9370    -0.0010    -0.9370 ha         1 1VS       0.120000
     34 H2           3.1640     0.0000     1.1990 ha         1 1VS       0.103500
     35 H3           1.9310    -0.0040     3.3320 ha         1 1VS       0.101000
     36 H4          -0.5320    -0.0000     3.3400 ha         1 1VS       0.103500
     37 H5          -1.7750     0.0050     1.2150 ha         1 1VS       0.120000
     38 H7          -1.0030    -3.3930    -1.3450 hn         1 1VS       0.180500
     39 H8          -2.0490    -3.8860     1.2580 h1         1 1VS       0.025200
     40 H9          -3.2480    -4.4100     0.0670 h1         1 1VS       0.025200
     41 H10         -1.5640    -5.8560    -1.0080 hc         1 1VS       0.008367
     42 H11         -0.3470    -5.3160     0.1570 hc         1 1VS       0.008367
     43 H12         -1.7330    -6.2680     0.7040 hc         1 1VS       0.008367
     44 H13         -3.8140    -2.2010    -2.8330 hn         1 1VS       0.174500
     45 H14         -4.6760    -3.0530    -5.2500 h1         1 1VS       0.021700
     46 H15         -5.8480    -1.9160    -4.5700 h1         1 1VS       0.021700
     47 H16         -4.4620    -1.5940    -7.1240 hn         1 1VS       0.264800
     48 H18         -6.0900    -3.3320    -7.2170 h1         1 1VS       0.011200
     49 H19         -7.2610    -2.1940    -6.5360 h1         1 1VS       0.011200
     50 H20         -6.9500    -0.7060    -8.4870 hc         1 1VS       0.020200
     51 H21         -5.7780    -1.8440    -9.1670 hc         1 1VS       0.020200
     52 H22         -7.1500    -3.8860   -10.2760 h4         1 1VS       0.141000
     53 H23         -9.5140    -4.7960   -10.6880 hn         1 1VS       0.112700
     54 H24         -9.7480    -0.7250    -7.2120 ha         1 1VS       0.104000
     55 H25        -12.1790    -0.9290    -7.0220 ha         1 1VS       0.103000
     56 H26        -13.3910    -2.6470    -8.3010 ha         1 1VS       0.100000
     57 H27        -12.1790    -4.1860    -9.7860 ha         1 1VS       0.099000
     58 H6           0.2660     1.6260    -2.2600 h4         1 1VS       0.157000
@<TRIPOS>BOND
     1     1     2 ar  
     2     1     6 ar  
     3     1     9 1   
     4     2     3 ar  
     5     2    33 1   
     6     3     4 ar  
     7     3    34 1   
     8     4     5 ar  
     9     4    35 1   
    10     5     6 ar  
    11     5    36 1   
    12     6    37 1   
    13     7     8 1   
    14     7    16 1   
    15     8     9 2   
    16     8    58 1   
    17     9    10 1   
    18    10    11 1   
    19    10    16 2   
    20    11    12 1   
    21    11    15 2   
    22    12    13 1   
    23    12    38 1   
    24    13    14 1   
    25    13    39 1   
    26    13    40 1   
    27    14    41 1   
    28    14    42 1   
    29    14    43 1   
    30    16    17 1   
    31    17    18 1   
    32    17    44 1   
    33    18    19 1   
    34    18    23 2   
    35    19    20 1   
    36    19    45 1   
    37    19    46 1   
    38    20    21 1   
    39    20    47 1   
    40    21    22 1   
    41    21    48 1   
    42    21    49 1   
    43    22    26 1   
    44    22    50 1   
    45    22    51 1   
    46    24    25 ar  
    47    24    28 1   
    48    24    32 ar  
    49    25    26 1   
    50    25    29 ar  
    51    26    27 2   
    52    27    28 1   
    53    27    52 1   
    54    28    53 1   
    55    29    30 ar  
    56    29    54 1   
    57    30    31 ar  
    58    30    55 1   
    59    31    32 ar  
    60    31    56 1   
    61    32    57 1   
@<TRIPOS>SUBSTRUCTURE
     1 1VS         1 TEMP              0 ****  ****    0 ROOT
