@<TRIPOS>MOLECULE
1VT
   63    66     1     0     0
SMALL
bcc


@<TRIPOS>ATOM
      1 C01          0.7490    -0.4860    -0.0130 cc         1 1VT      -0.245600
      2 C02          0.5020     0.2230    -1.2600 c          1 1VT       0.629700
      3 O01          0.9950     1.2720    -1.6520 o          1 1VT      -0.438100
      4 N01         -0.4720    -0.4700    -2.1820 ny         1 1VT      -0.671800
      5 C1          -1.2670     0.4760    -3.0320 c3         1 1VT       0.176100
      6 C03         -2.1450    -0.2640    -3.9810 ca         1 1VT      -0.185300
      7 C04         -1.8610    -0.2520    -5.3510 ca         1 1VT      -0.106000
      8 C05         -2.7180    -0.8960    -6.2430 ca         1 1VT      -0.117500
      9 C06         -3.8540    -1.5560    -5.7710 ca         1 1VT      -0.077000
     10 C07         -4.1360    -1.5710    -4.4030 ca         1 1VT      -0.117500
     11 C08         -3.2860    -0.9250    -3.5080 ca         1 1VT      -0.106000
     12 C09          2.0270    -0.8410     0.4510 cd         1 1VT       0.042500
     13 N            3.2460    -0.6590    -0.1960 ns         1 1VT      -0.428100
     14 C10          3.4350    -0.7310    -1.5630 c          1 1VT       0.695100
     15 O            2.4950    -0.9280    -2.3620 o          1 1VT      -0.639100
     16 C11          4.8670    -0.5540    -2.0540 c3         1 1VT      -0.179400
     17 C2           4.8960    -0.7320    -3.5690 c3         1 1VT       0.107800
     18 N23          6.2340    -0.4940    -4.1770 ny         1 1VT      -0.771000
     19 C25          7.2010    -1.6340    -3.9690 c3         1 1VT       0.181100
     20 C12          8.5010    -1.3370    -4.6260 ca         1 1VT      -0.210300
     21 C13          8.7350    -1.7700    -5.9380 ca         1 1VT      -0.097500
     22 C14          9.9710    -1.5320    -6.5360 ca         1 1VT      -0.114000
     23 C15         10.9730    -0.8630    -5.8300 ca         1 1VT      -0.063000
     24 C16         10.7410    -0.4310    -4.5220 ca         1 1VT      -0.114000
     25 C17          9.5070    -0.6670    -3.9180 ca         1 1VT      -0.097500
     26 S            1.9110    -1.5800     1.9670 ss         1 1VT       0.201200
     27 C18          0.2660    -1.4480     2.0400 cd         1 1VT      -0.158100
     28 C19         -0.2790    -0.8590     0.9150 cc         1 1VT      -0.005000
     29 C20         -1.7000    -0.6180     0.7110 ca         1 1VT      -0.105000
     30 C21         -2.2580     0.6270     1.0350 ca         1 1VT      -0.126500
     31 C22         -3.6290     0.8360     0.8860 ca         1 1VT      -0.122000
     32 C23         -4.4490    -0.1900     0.4170 ca         1 1VT      -0.097000
     33 C24         -3.8970    -1.4320     0.0970 ca         1 1VT      -0.122000
     34 C           -2.5290    -1.6510     0.2470 ca         1 1VT      -0.126500
     35 H1           0.0780    -1.0950    -2.7870 hn         1 1VT       0.467800
     36 H2          -0.5380     1.1420    -3.5800 hx         1 1VT       0.111700
     37 H3          -1.8820     1.1170    -2.3360 hx         1 1VT       0.111700
     38 H4          -0.9760     0.2800    -5.7310 ha         1 1VT       0.136500
     39 H5          -2.5020    -0.8760    -7.3230 ha         1 1VT       0.159000
     40 H6          -4.5330    -2.0600    -6.4780 ha         1 1VT       0.164000
     41 H7          -5.0380    -2.0850    -4.0330 ha         1 1VT       0.159000
     42 H8          -3.5250    -0.9220    -2.4310 ha         1 1VT       0.136500
     43 H9           4.0270    -0.4420     0.3870 hn         1 1VT       0.350500
     44 H10          5.5290    -1.3110    -1.5530 hc         1 1VT       0.099700
     45 H11          5.2230     0.4720    -1.7650 hc         1 1VT       0.099700
     46 H12          4.5650    -1.7790    -3.8340 hx         1 1VT       0.121700
     47 H13          4.1640    -0.0090    -4.0390 hx         1 1VT       0.121700
     48 H14          6.1180    -0.3540    -5.1890 hn         1 1VT       0.457300
     49 H16          6.7290    -2.5630    -4.4020 hx         1 1VT       0.104200
     50 H17          7.3290    -1.7710    -2.8570 hx         1 1VT       0.104200
     51 H18          7.9570    -2.3160    -6.4930 ha         1 1VT       0.136000
     52 H19         10.1600    -1.8800    -7.5650 ha         1 1VT       0.167500
     53 H20         11.9530    -0.6800    -6.3040 ha         1 1VT       0.171000
     54 H21         11.5360     0.0880    -3.9630 ha         1 1VT       0.167500
     55 H22          9.3380    -0.3440    -2.8800 ha         1 1VT       0.136000
     56 H23         -0.3190    -1.7890     2.9020 h4         1 1VT       0.221000
     57 H24         -1.6190     1.4330     1.4290 ha         1 1VT       0.146500
     58 H25         -4.0660     1.8120     1.1570 ha         1 1VT       0.160000
     59 H26         -5.5350    -0.0260     0.3160 ha         1 1VT       0.163000
     60 H27         -4.5480    -2.2500    -0.2510 ha         1 1VT       0.160000
     61 H28         -2.1070    -2.6470     0.0410 ha         1 1VT       0.146500
     62 H012        -1.1210    -1.0460    -1.6230 hn         1 1VT       0.467800
     63 H232         6.6500     0.3630    -3.7910 hn         1 1VT       0.457300
@<TRIPOS>BOND
     1     1     2 1   
     2     1    12 2   
     3     1    28 1   
     4     2     3 2   
     5     2     4 1   
     6     4     5 1   
     7     4    35 1   
     8     4    62 1   
     9     5     6 1   
    10     5    36 1   
    11     5    37 1   
    12     6     7 ar  
    13     6    11 ar  
    14     7     8 ar  
    15     7    38 1   
    16     8     9 ar  
    17     8    39 1   
    18     9    10 ar  
    19     9    40 1   
    20    10    11 ar  
    21    10    41 1   
    22    11    42 1   
    23    12    13 1   
    24    12    26 1   
    25    13    14 1   
    26    13    43 1   
    27    14    15 2   
    28    14    16 1   
    29    16    17 1   
    30    16    44 1   
    31    16    45 1   
    32    17    18 1   
    33    17    46 1   
    34    17    47 1   
    35    18    19 1   
    36    18    48 1   
    37    18    63 1   
    38    19    20 1   
    39    19    49 1   
    40    19    50 1   
    41    20    21 ar  
    42    20    25 ar  
    43    21    22 ar  
    44    21    51 1   
    45    22    23 ar  
    46    22    52 1   
    47    23    24 ar  
    48    23    53 1   
    49    24    25 ar  
    50    24    54 1   
    51    25    55 1   
    52    26    27 1   
    53    27    28 2   
    54    27    56 1   
    55    28    29 1   
    56    29    30 ar  
    57    29    34 ar  
    58    30    31 ar  
    59    30    57 1   
    60    31    32 ar  
    61    31    58 1   
    62    32    33 ar  
    63    32    59 1   
    64    33    34 ar  
    65    33    60 1   
    66    34    61 1   
@<TRIPOS>SUBSTRUCTURE
     1 1VT         1 TEMP              0 ****  ****    0 ROOT
