@<TRIPOS>MOLECULE
1VT
   61    64     1     0     0
SMALL
bcc


@<TRIPOS>ATOM
      1 C01          0.0000     0.0000     0.0000 cc         1 1VT      -0.236600
      2 C02         -0.8110     0.0000    -1.2200 c          1 1VT       0.613700
      3 O01         -1.1480    -1.0550    -1.7270 o          1 1VT      -0.636100
      4 N01         -1.1830     1.1670    -1.7820 ns         1 1VT      -0.200900
      5 C1          -1.9930     1.1670    -3.0020 c3         1 1VT       0.110300
      6 C03         -2.2710     2.5880    -3.4200 ca         1 1VT      -0.129300
      7 C04         -1.4010     3.2390    -4.2750 ca         1 1VT      -0.084500
      8 C05         -1.6560     4.5430    -4.6590 ca         1 1VT      -0.100500
      9 C06         -2.7800     5.1950    -4.1890 ca         1 1VT      -0.090000
     10 C07         -3.6490     4.5430    -3.3340 ca         1 1VT      -0.100500
     11 C08         -3.3990     3.2390    -2.9550 ca         1 1VT      -0.084500
     12 C09          1.3690     0.0000     0.0000 cd         1 1VT       0.013500
     13 N            2.1540    -0.0000    -1.1420 ns         1 1VT       0.027900
     14 C10          3.4970    -0.0010    -1.0370 c          1 1VT       0.540100
     15 O            4.0200    -0.0000     0.0570 o          1 1VT      -0.600100
     16 C11          4.3510    -0.0010    -2.2790 c3         1 1VT      -0.093400
     17 C2           5.8280    -0.0020    -1.8830 c3         1 1VT       0.153800
     18 N23          6.6600    -0.0020    -3.0930 n7         1 1VT      -0.590200
     19 C25          8.0890    -0.0010    -2.7510 c3         1 1VT       0.207100
     20 C12          8.9090    -0.0020    -4.0150 ca         1 1VT      -0.098300
     21 C13          9.2850     1.1940    -4.5960 ca         1 1VT      -0.087500
     22 C14         10.0360     1.1940    -5.7560 ca         1 1VT      -0.102000
     23 C15         10.4130    -0.0030    -6.3360 ca         1 1VT      -0.099000
     24 C16         10.0360    -1.2000    -5.7540 ca         1 1VT      -0.102000
     25 C17          9.2890    -1.2000    -4.5920 ca         1 1VT      -0.087500
     26 S            1.9790     0.0000     1.5910 ss         1 1VT      -0.142800
     27 C18          0.3730     0.0010     2.2960 cd         1 1VT      -0.045100
     28 C19         -0.5630     0.0060     1.3400 cc         1 1VT       0.002000
     29 C20         -2.0200     0.0080     1.6170 ca         1 1VT      -0.018000
     30 C21         -2.5640    -0.9180     2.5060 ca         1 1VT      -0.092000
     31 C22         -3.9200    -0.9120     2.7600 ca         1 1VT      -0.098500
     32 C23         -4.7390     0.0110     2.1360 ca         1 1VT      -0.098000
     33 C24         -4.2060     0.9320     1.2530 ca         1 1VT      -0.098500
     34 C           -2.8500     0.9390     0.9960 ca         1 1VT      -0.092000
     35 H1          -0.8720     2.0330    -1.3880 hn         1 1VT       0.183500
     36 H2          -1.4560     0.6560    -3.7920 h1         1 1VT       0.030200
     37 H3          -2.9300     0.6570    -2.8130 h1         1 1VT       0.030200
     38 H4          -0.5200     2.7280    -4.6440 ha         1 1VT       0.107000
     39 H5          -0.9740     5.0530    -5.3290 ha         1 1VT       0.105500
     40 H6          -2.9780     6.2170    -4.4880 ha         1 1VT       0.105000
     41 H7          -4.5320     5.0540    -2.9680 ha         1 1VT       0.105500
     42 H8          -4.0810     2.7290    -2.2850 ha         1 1VT       0.107000
     43 H9           1.7230    -0.0330    -2.0450 hn         1 1VT       0.175500
     44 H10          4.1350     0.8830    -2.8660 hc         1 1VT       0.035700
     45 H11          4.1340    -0.8860    -2.8660 hc         1 1VT       0.035700
     46 H12          6.0450    -0.8860    -1.2960 h1         1 1VT       0.023700
     47 H13          6.0450     0.8830    -1.2960 h1         1 1VT       0.023700
     48 H14          6.4490    -0.8120    -3.6430 hn         1 1VT       0.253800
     49 H16          8.3200     0.8840    -2.1710 h1         1 1VT       0.012200
     50 H17          8.3210    -0.8850    -2.1700 h1         1 1VT       0.012200
     51 H18          8.9900     2.1330    -4.1420 ha         1 1VT       0.105000
     52 H19         10.3310     2.1320    -6.2110 ha         1 1VT       0.102000
     53 H20         11.0000    -0.0040    -7.2460 ha         1 1VT       0.102000
     54 H21         10.3320    -2.1390    -6.2070 ha         1 1VT       0.102000
     55 H22          8.9940    -2.1370    -4.1370 ha         1 1VT       0.105000
     56 H23          0.1670     0.0030     3.3590 h4         1 1VT       0.156000
     57 H24         -1.9230    -1.6420     2.9950 ha         1 1VT       0.107500
     58 H25         -4.3430    -1.6320     3.4500 ha         1 1VT       0.101500
     59 H26         -5.8040     0.0100     2.3360 ha         1 1VT       0.101000
     60 H27         -4.8520     1.6550     0.7680 ha         1 1VT       0.101500
     61 H28         -2.4320     1.6610     0.3040 ha         1 1VT       0.107500
@<TRIPOS>BOND
     1     1     2 1   
     2     1    12 2   
     3     1    28 1   
     4     2     3 2   
     5     2     4 1   
     6     4     5 1   
     7     4    35 1   
     8     5     6 1   
     9     5    36 1   
    10     5    37 1   
    11     6     7 ar  
    12     6    11 ar  
    13     7     8 ar  
    14     7    38 1   
    15     8     9 ar  
    16     8    39 1   
    17     9    10 ar  
    18     9    40 1   
    19    10    11 ar  
    20    10    41 1   
    21    11    42 1   
    22    12    13 1   
    23    12    26 1   
    24    13    14 1   
    25    13    43 1   
    26    14    15 2   
    27    14    16 1   
    28    16    17 1   
    29    16    44 1   
    30    16    45 1   
    31    17    18 1   
    32    17    46 1   
    33    17    47 1   
    34    18    19 1   
    35    18    48 1   
    36    19    20 1   
    37    19    49 1   
    38    19    50 1   
    39    20    21 ar  
    40    20    25 ar  
    41    21    22 ar  
    42    21    51 1   
    43    22    23 ar  
    44    22    52 1   
    45    23    24 ar  
    46    23    53 1   
    47    24    25 ar  
    48    24    54 1   
    49    25    55 1   
    50    26    27 1   
    51    27    28 2   
    52    27    56 1   
    53    28    29 1   
    54    29    30 ar  
    55    29    34 ar  
    56    30    31 ar  
    57    30    57 1   
    58    31    32 ar  
    59    31    58 1   
    60    32    33 ar  
    61    32    59 1   
    62    33    34 ar  
    63    33    60 1   
    64    34    61 1   
@<TRIPOS>SUBSTRUCTURE
     1 1VT         1 TEMP              0 ****  ****    0 ROOT
