@<TRIPOS>MOLECULE
1VV
   58    62     1     0     0
SMALL
bcc


@<TRIPOS>ATOM
      1 C16         -0.9190    -0.9970     0.2460 ca         1 1VV      -0.124500
      2 C17          0.4510    -1.1000     0.0360 ca         1 1VV      -0.124500
      3 C3           1.8220     2.1890    10.3000 ca         1 1VV      -0.132000
      4 C4           2.7340     1.4680     9.5290 ca         1 1VV      -0.155000
      5 C15         -1.4450    -0.8070     1.5380 ca         1 1VV      -0.068000
      6 C18          1.3600    -1.0180     1.1070 ca         1 1VV      -0.068000
      7 C2           0.6640     2.6940     9.7180 ca         1 1VV      -0.136000
      8 C21          2.4810     1.2520     8.1770 ca         1 1VV      -0.123000
      9 C19         -0.5560    -0.7260     2.5880 ca         1 1VV      -0.132600
     10 C13          0.8470    -0.8320     2.3730 ca         1 1VV      -0.132600
     11 C1           0.3960     2.4790     8.3580 ca         1 1VV      -0.023300
     12 C5           1.3110     1.7460     7.5880 ca         1 1VV      -0.102300
     13 C12         -0.7820    -0.5170     4.0570 c          1 1VV       0.724100
     14 C14          1.5280    -0.6880     3.7020 c          1 1VV       0.724100
     15 C23          0.3980     3.2300     4.5310 c          1 1VV       0.681100
     16 C31         -1.1950     5.6460     5.6960 c          1 1VV       0.903600
     17 C9          -0.8200     3.0640     7.7450 c3         1 1VV      -0.091100
     18 C27          0.7720     4.8210     1.8430 c3         1 1VV      -0.079400
     19 C28          0.6870     6.2400     2.3650 c3         1 1VV      -0.071400
     20 C26         -0.4000     3.9670     2.2840 c3         1 1VV      -0.059400
     21 C30          0.4680     6.2560     3.8660 c3         1 1VV      -0.064400
     22 C8          -1.1350     2.4910     6.3620 c3         1 1VV       0.066000
     23 C6           1.0650     1.4800     6.1230 c3         1 1VV       0.108000
     24 C25         -0.6750     4.0250     3.7880 c3         1 1VV      -0.097700
     25 C29         -0.7860     5.4860     4.2190 c3         1 1VV      -0.169700
     26 N11          0.5020    -0.5270     4.6760 n          1 1VV      -0.497400
     27 N7           0.0230     2.2970     5.5160 n          1 1VV      -0.451800
     28 O22         -1.8590    -0.4220     4.6490 o          1 1VV      -0.569000
     29 O20          2.7360    -0.7530     3.9420 o          1 1VV      -0.569000
     30 O24          1.5950     3.2730     4.1750 o          1 1VV      -0.632100
     31 H1          -1.6110    -1.0570    -0.6080 ha         1 1VV       0.133500
     32 H2           0.8390    -1.2410    -0.9840 ha         1 1VV       0.133500
     33 H3           2.0230     2.3660    11.3660 ha         1 1VV       0.115000
     34 H4           3.6550     1.0790     9.9840 ha         1 1VV       0.115000
     35 H5          -2.5290    -0.7170     1.7010 ha         1 1VV       0.155000
     36 H6           2.4440    -1.0900     0.9370 ha         1 1VV       0.155000
     37 H7          -0.0480     3.2820    10.3160 ha         1 1VV       0.133000
     38 H8           3.2080     0.7000     7.5630 ha         1 1VV       0.126000
     39 H9          -0.6850     4.1870     7.6490 hc         1 1VV       0.100200
     40 H10         -1.7110     2.8960     8.4050 hc         1 1VV       0.100200
     41 H11          0.8100     4.8350     0.7220 hc         1 1VV       0.038200
     42 H12          1.7240     4.3540     2.2120 hc         1 1VV       0.038200
     43 H13          1.6330     6.7850     2.1130 hc         1 1VV       0.017200
     44 H14         -0.1560     6.7790     1.8570 hc         1 1VV       0.017200
     45 H15         -1.3280     4.3140     1.7570 hc         1 1VV       0.025200
     46 H16         -0.2120     2.9050     1.9800 hc         1 1VV       0.025200
     47 H17          1.3460     5.7960     4.3910 hc         1 1VV       0.056700
     48 H18          0.3700     7.3090     4.2350 hc         1 1VV       0.056700
     49 H19         -1.8750     3.1940     5.8750 h1         1 1VV       0.078700
     50 H20         -1.6250     1.4800     6.4740 h1         1 1VV       0.078700
     51 H21          2.0390     1.6630     5.5690 h1         1 1VV       0.104700
     52 H22         -1.6820     3.5490     3.9640 hc         1 1VV       0.071700
     53 H23         -1.6440     5.9180     3.6250 hc         1 1VV       0.042700
     54 C10          0.7380    -0.0460     6.0070 c3         1 1VV       0.093000
     55 O32         -2.3740     5.2940     6.0050 o          1 1VV      -0.841800
     56 H24          1.6250    -0.6060     6.4220 h1         1 1VV       0.070200
     57 H25         -0.1770    -0.2800     6.6200 h1         1 1VV       0.070200
     58 O33         -0.3750     6.1210     6.5290 o          1 1VV      -0.841800
@<TRIPOS>BOND
     1     1     2 ar  
     2     1     5 ar  
     3     1    31 1   
     4     2     6 ar  
     5     2    32 1   
     6     3     4 ar  
     7     3     7 ar  
     8     3    33 1   
     9     4     8 ar  
    10     4    34 1   
    11     5     9 ar  
    12     5    35 1   
    13     6    10 ar  
    14     6    36 1   
    15     7    11 ar  
    16     7    37 1   
    17     8    12 ar  
    18     8    38 1   
    19     9    10 ar  
    20     9    13 1   
    21    10    14 1   
    22    11    12 ar  
    23    11    17 1   
    24    12    23 1   
    25    13    26 1   
    26    13    28 2   
    27    14    26 1   
    28    14    29 2   
    29    15    24 1   
    30    15    27 1   
    31    15    30 2   
    32    16    25 1   
    33    16    55 1   
    34    16    58 1   
    35    17    22 1   
    36    17    39 1   
    37    17    40 1   
    38    18    19 1   
    39    18    20 1   
    40    18    41 1   
    41    18    42 1   
    42    19    21 1   
    43    19    43 1   
    44    19    44 1   
    45    20    24 1   
    46    20    45 1   
    47    20    46 1   
    48    21    25 1   
    49    21    47 1   
    50    21    48 1   
    51    22    27 1   
    52    22    49 1   
    53    22    50 1   
    54    23    27 1   
    55    23    51 1   
    56    23    54 1   
    57    24    25 1   
    58    24    52 1   
    59    25    53 1   
    60    26    54 1   
    61    54    56 1   
    62    54    57 1   
@<TRIPOS>SUBSTRUCTURE
     1 1VV         1 TEMP              0 ****  ****    0 ROOT
