@<TRIPOS>MOLECULE
1VV
   58    62     1     0     0
SMALL
bcc


@<TRIPOS>ATOM
      1 C16          0.0000     0.0000     0.0000 ca         1 1VV      -0.099500
      2 C17          1.3810     0.0000     0.0000 ca         1 1VV      -0.099500
      3 C3          -1.3320    -4.4430     5.1990 ca         1 1VV      -0.113000
      4 C4          -0.8990    -3.4570     4.3310 ca         1 1VV      -0.093000
      5 C15         -0.7030     0.0060     1.1950 ca         1 1VV      -0.026500
      6 C18          2.0840     0.0000     1.1960 ca         1 1VV      -0.026500
      7 C2          -0.9490    -4.4070     6.5240 ca         1 1VV      -0.106000
      8 C21         -0.0780    -2.4500     4.7940 ca         1 1VV      -0.157000
      9 C19         -0.0140     0.0120     2.3980 ca         1 1VV      -0.166600
     10 C13          1.3950     0.0010     2.3970 ca         1 1VV      -0.166600
     11 C1          -0.1310    -3.3870     6.9960 ca         1 1VV      -0.068300
     12 C5           0.3160    -2.4190     6.1260 ca         1 1VV      -0.079300
     13 C12         -0.4190     0.0190     3.8190 c          1 1VV       0.650100
     14 C14          1.8000     0.0110     3.8190 c          1 1VV       0.650100
     15 C23          1.2240    -0.1080     8.7120 c          1 1VV       0.652100
     16 C31          2.8470     1.9330     9.9940 c          1 1VV       0.991600
     17 C9           0.2230    -3.3980     8.4590 c3         1 1VV       0.005900
     18 C27         -1.0250     0.1360    10.5540 c3         1 1VV      -0.030400
     19 C28         -0.8220     1.5760    11.0290 c3         1 1VV      -0.025400
     20 C26          0.2130    -0.6950    10.8990 c3         1 1VV      -0.039400
     21 C30          0.4030     2.1740    10.3340 c3         1 1VV      -0.057400
     22 C8           1.4700    -2.5550     8.7230 c3         1 1VV       0.039000
     23 C6           1.2310    -1.3030     6.5620 c3         1 1VV       0.086000
     24 C25          1.4380    -0.0960    10.2030 c3         1 1VV      -0.099700
     25 C29          1.6410     1.3440    10.6790 c3         1 1VV      -0.126700
     26 N11          0.6910     0.0240     4.5800 n          1 1VV      -0.123400
     27 N7           1.3020    -1.2670     8.0290 n          1 1VV      -0.163800
     28 O22         -1.5610     0.0280     4.2310 o          1 1VV      -0.600500
     29 O20          2.9420     0.0050     4.2310 o          1 1VV      -0.600500
     30 O24          0.9830     0.9260     8.1260 o          1 1VV      -0.624100
     31 H1          -0.5380    -0.0000    -0.9400 ha         1 1VV       0.102000
     32 H2           1.9190    -0.0050    -0.9400 ha         1 1VV       0.102000
     33 H3          -1.9770    -5.2360     4.8420 ha         1 1VV       0.094000
     34 H4          -1.1970    -3.4810     3.2900 ha         1 1VV       0.096000
     35 H5          -1.7860     0.0060     1.1890 ha         1 1VV       0.115000
     36 H6           3.1670     0.0000     1.1900 ha         1 1VV       0.115000
     37 H7          -1.2890    -5.1800     7.2030 ha         1 1VV       0.098000
     38 H8           0.2610    -1.6780     4.1150 ha         1 1VV       0.132000
     39 H9           0.4110    -4.4180     8.7710 hc         1 1VV       0.023700
     40 H10         -0.6060    -2.9930     9.0280 hc         1 1VV       0.023700
     41 H11         -1.1760     0.1290     9.4820 hc         1 1VV       0.005200
     42 H12         -1.8910    -0.2870    11.0490 hc         1 1VV       0.005200
     43 H13         -1.6990     2.1630    10.7820 hc         1 1VV      -0.003300
     44 H14         -0.6670     1.5830    12.1010 hc         1 1VV      -0.003300
     45 H15          0.3670    -0.6830    11.9710 hc         1 1VV       0.007200
     46 H16          0.0690    -1.7130    10.5600 hc         1 1VV       0.007200
     47 H17          0.5470     3.1930    10.6740 hc         1 1VV       0.052700
     48 H18          0.2490     2.1640     9.2620 hc         1 1VV       0.052700
     49 H19          1.5560    -2.3750     9.7880 h1         1 1VV       0.036200
     50 H20          2.3350    -3.0660     8.3180 h1         1 1VV       0.036200
     51 H21          2.2220    -1.4750     6.1600 h1         1 1VV       0.052700
     52 H22          2.3140    -0.6830    10.4520 hc         1 1VV       0.044700
     53 H23          1.7900     1.3500    11.7520 hc         1 1VV       0.019700
     54 C10          0.6910     0.0320     6.0450 c3         1 1VV      -0.004000
     55 O32          3.4380     1.2940     9.1560 o          1 1VV      -0.899300
     56 H24         -0.3210     0.1760     6.4060 h1         1 1VV       0.102700
     57 H25          1.3200     0.8390     6.4020 h1         1 1VV       0.102700
     58 O33          3.2660     3.1660    10.3170 o          1 1VV      -0.899300
@<TRIPOS>BOND
     1     1     2 ar  
     2     1     5 ar  
     3     1    31 1   
     4     2     6 ar  
     5     2    32 1   
     6     3     4 ar  
     7     3     7 ar  
     8     3    33 1   
     9     4     8 ar  
    10     4    34 1   
    11     5     9 ar  
    12     5    35 1   
    13     6    10 ar  
    14     6    36 1   
    15     7    11 ar  
    16     7    37 1   
    17     8    12 ar  
    18     8    38 1   
    19     9    10 ar  
    20     9    13 1   
    21    10    14 1   
    22    11    12 ar  
    23    11    17 1   
    24    12    23 1   
    25    13    26 1   
    26    13    28 2   
    27    14    26 1   
    28    14    29 2   
    29    15    24 1   
    30    15    27 1   
    31    15    30 2   
    32    16    25 1   
    33    16    55 1   
    34    16    58 1   
    35    17    22 1   
    36    17    39 1   
    37    17    40 1   
    38    18    19 1   
    39    18    20 1   
    40    18    41 1   
    41    18    42 1   
    42    19    21 1   
    43    19    43 1   
    44    19    44 1   
    45    20    24 1   
    46    20    45 1   
    47    20    46 1   
    48    21    25 1   
    49    21    47 1   
    50    21    48 1   
    51    22    27 1   
    52    22    49 1   
    53    22    50 1   
    54    23    27 1   
    55    23    51 1   
    56    23    54 1   
    57    24    25 1   
    58    24    52 1   
    59    25    53 1   
    60    26    54 1   
    61    54    56 1   
    62    54    57 1   
@<TRIPOS>SUBSTRUCTURE
     1 1VV         1 TEMP              0 ****  ****    0 ROOT
