@<TRIPOS>MOLECULE
molecule
   58    62     1     0     0
SMALL
bcc


@<TRIPOS>ATOM
      1 C16          0.0000     0.0000     0.0000 ca         1 1VV      -0.124000
      2 C17          1.3810     0.0000     0.0000 ca         1 1VV      -0.124000
      3 C3          -1.3320    -4.4430     5.1990 ca         1 1VV      -0.137000
      4 C4          -0.8990    -3.4570     4.3310 ca         1 1VV      -0.128000
      5 C15         -0.7030     0.0060     1.1950 ca         1 1VV      -0.067000
      6 C18          2.0840     0.0000     1.1960 ca         1 1VV      -0.067000
      7 C2          -0.9490    -4.4070     6.5240 ca         1 1VV      -0.134000
      8 C21         -0.0780    -2.4500     4.7940 ca         1 1VV      -0.142000
      9 C19         -0.0140     0.0120     2.3980 ca         1 1VV      -0.152600
     10 C13          1.3950     0.0010     2.3970 ca         1 1VV      -0.152600
     11 C1          -0.1310    -3.3870     6.9960 ca         1 1VV      -0.062300
     12 C5           0.3160    -2.4190     6.1260 ca         1 1VV      -0.079300
     13 C12         -0.4190     0.0190     3.8190 c          1 1VV       0.715100
     14 C14          1.8000     0.0110     3.8190 c          1 1VV       0.715100
     15 C23          1.2240    -0.1080     8.7120 c          1 1VV       0.716100
     16 C31          2.8470     1.9330     9.9940 c          1 1VV       0.901600
     17 C9           0.2230    -3.3980     8.4590 c3         1 1VV      -0.061100
     18 C27         -1.0250     0.1360    10.5540 c3         1 1VV      -0.079400
     19 C28         -0.8220     1.5760    11.0290 c3         1 1VV      -0.083400
     20 C26          0.2130    -0.6950    10.8990 c3         1 1VV      -0.084400
     21 C30          0.4030     2.1740    10.3340 c3         1 1VV      -0.078400
     22 C8           1.4700    -2.5550     8.7230 c3         1 1VV       0.107000
     23 C6           1.2310    -1.3030     6.5620 c3         1 1VV       0.151000
     24 C25          1.4380    -0.0960    10.2030 c3         1 1VV      -0.114700
     25 C29          1.6410     1.3440    10.6790 c3         1 1VV      -0.150700
     26 N11          0.6910     0.0240     4.5800 n          1 1VV      -0.492400
     27 N7           1.3020    -1.2670     8.0290 n          1 1VV      -0.493800
     28 O22         -1.5610     0.0280     4.2310 o          1 1VV      -0.563500
     29 O20          2.9420     0.0050     4.2310 o          1 1VV      -0.563500
     30 O24          0.9830     0.9260     8.1260 o          1 1VV      -0.595100
     31 H1          -0.5380    -0.0000    -0.9400 ha         1 1VV       0.132500
     32 H2           1.9190    -0.0050    -0.9400 ha         1 1VV       0.132500
     33 H3          -1.9770    -5.2360     4.8420 ha         1 1VV       0.117000
     34 H4          -1.1970    -3.4810     3.2900 ha         1 1VV       0.121000
     35 H5          -1.7860     0.0060     1.1890 ha         1 1VV       0.147000
     36 H6           3.1670     0.0000     1.1900 ha         1 1VV       0.147000
     37 H7          -1.2890    -5.1800     7.2030 ha         1 1VV       0.120000
     38 H8           0.2610    -1.6780     4.1150 ha         1 1VV       0.142000
     39 H9           0.4110    -4.4180     8.7710 hc         1 1VV       0.051200
     40 H10         -0.6060    -2.9930     9.0280 hc         1 1VV       0.051200
     41 H11         -1.1760     0.1290     9.4820 hc         1 1VV       0.030700
     42 H12         -1.8910    -0.2870    11.0490 hc         1 1VV       0.030700
     43 H13         -1.6990     2.1630    10.7820 hc         1 1VV       0.022700
     44 H14         -0.6670     1.5830    12.1010 hc         1 1VV       0.022700
     45 H15          0.3670    -0.6830    11.9710 hc         1 1VV       0.028700
     46 H16          0.0690    -1.7130    10.5600 hc         1 1VV       0.028700
     47 H17          0.5470     3.1930    10.6740 hc         1 1VV       0.071700
     48 H18          0.2490     2.1640     9.2620 hc         1 1VV       0.071700
     49 H19          1.5560    -2.3750     9.7880 h1         1 1VV       0.059700
     50 H20          2.3350    -3.0660     8.3180 h1         1 1VV       0.059700
     51 H21          2.2220    -1.4750     6.1600 h1         1 1VV       0.079700
     52 H22          2.3140    -0.6830    10.4520 hc         1 1VV       0.067700
     53 H23          1.7900     1.3500    11.7520 hc         1 1VV       0.041700
     54 C10          0.6910     0.0320     6.0450 c3         1 1VV       0.097000
     55 O32          3.4380     1.2940     9.1560 o          1 1VV      -0.847300
     56 H24         -0.3210     0.1760     6.4060 h1         1 1VV       0.123700
     57 H25          1.3200     0.8390     6.4020 h1         1 1VV       0.123700
     58 O33          3.2660     3.1660    10.3170 o          1 1VV      -0.847300
@<TRIPOS>BOND
     1     7     3 ar  
     2     7    11 ar  
     3     3     4 ar  
     4    17    11 1   
     5    17    22 1   
     6    11    12 ar  
     7     4     8 ar  
     8    22    27 1   
     9    12     8 ar  
    10    12    23 1   
    11    27    23 1   
    12    27    15 1   
    13    55    16 1   
    14    28    13 2   
    15    23    54 1   
    16    24    20 1   
    17    24    15 1   
    18    24    25 1   
    19    54    26 1   
    20    20    18 1   
    21    16    25 1   
    22    16    58 1   
    23    15    30 2   
    24    25    21 1   
    25    13    26 1   
    26    13     9 1   
    27    26    14 1   
    28    18    19 1   
    29     9     5 ar  
    30     9    10 ar  
    31    21    19 1   
    32    14    29 2   
    33    14    10 1   
    34     5     1 ar  
    35    10     6 ar  
    36     1     2 ar  
    37     6     2 ar  
    38     1    31 1   
    39     2    32 1   
    40     3    33 1   
    41     4    34 1   
    42     5    35 1   
    43     6    36 1   
    44     7    37 1   
    45     8    38 1   
    46    17    39 1   
    47    17    40 1   
    48    18    41 1   
    49    18    42 1   
    50    19    43 1   
    51    19    44 1   
    52    20    45 1   
    53    20    46 1   
    54    21    47 1   
    55    21    48 1   
    56    22    49 1   
    57    22    50 1   
    58    23    51 1   
    59    24    52 1   
    60    25    53 1   
    61    54    56 1   
    62    54    57 1   
@<TRIPOS>SUBSTRUCTURE
     1 1VV         1 TEMP              0 ****  ****    0 ROOT
