@<TRIPOS>MOLECULE
molecule
   61    66     1     0     0
SMALL
bcc


@<TRIPOS>ATOM
      1 C5           0.0000     0.0000     0.0000 c3         1 1VW      -0.078400
      2 C6           1.5300     0.0000     0.0000 c3         1 1VW      -0.087400
      3 C11         -0.5030    -2.4810     2.8730 cc         1 1VW       0.343800
      4 C7           2.0390     0.0000     1.4420 c3         1 1VW      -0.074400
      5 C8           1.5300    -1.2500     2.1630 c3         1 1VW      -0.108400
      6 C9          -0.0000    -1.2500     2.1630 c3         1 1VW      -0.062000
      7 C3          -0.5100    -1.2490     0.7200 c3         1 1VW      -0.141700
      8 C2          -0.0070    -2.4790     0.0100 c          1 1VW       0.692100
      9 N12          0.0740    -3.6970     2.8780 na         1 1VW      -0.101400
     10 N13         -0.6660    -4.4650     3.6050 nc         1 1VW      -0.230800
     11 N14         -1.6650    -3.7830     4.0460 nd         1 1VW      -0.044000
     12 N15         -1.5820    -2.5730     3.6100 nd         1 1VW      -0.393000
     13 N16         -0.5440    -2.8410    -1.1730 n          1 1VW      -0.468800
     14 C17         -1.5290    -1.9900    -1.8590 c3         1 1VW       0.095000
     15 C18         -0.9110    -1.5240    -3.1760 c3         1 1VW      -0.056100
     16 C19         -0.2890    -2.6780    -3.9150 ca         1 1VW      -0.072300
     17 C20          0.0670    -3.8560    -3.2970 ca         1 1VW      -0.092300
     18 C21          0.6500    -4.8760    -4.0360 ca         1 1VW      -0.138000
     19 C22          0.8710    -4.7220    -5.3900 ca         1 1VW      -0.117000
     20 C23          0.5060    -3.5430    -6.0140 ca         1 1VW      -0.120000
     21 C24         -0.0700    -2.5280    -5.2790 ca         1 1VW      -0.125000
     22 C25         -0.1650    -4.0960    -1.8300 c3         1 1VW       0.144000
     23 C27          1.1160    -4.6420    -1.1950 c3         1 1VW       0.107000
     24 N28          1.4580    -5.9270    -1.8120 n          1 1VW      -0.501400
     25 C29          0.7190    -7.0450    -1.7000 c          1 1VW       0.719100
     26 O30         -0.3190    -7.1510    -1.0780 o          1 1VW      -0.570000
     27 C31          1.3810    -8.1250    -2.4610 ca         1 1VW      -0.159100
     28 C32          1.0910    -9.4590    -2.7000 ca         1 1VW      -0.059500
     29 C33          1.9470   -10.2190    -3.4830 ca         1 1VW      -0.114000
     30 C34          3.0870    -9.6560    -4.0250 ca         1 1VW      -0.114000
     31 C35          3.3900    -8.3220    -3.7940 ca         1 1VW      -0.059500
     32 C36          2.5440    -7.5510    -3.0140 ca         1 1VW      -0.159100
     33 C37          2.5480    -6.1410    -2.5690 c          1 1VW       0.719100
     34 O38          3.3930    -5.3130    -2.8460 o          1 1VW      -0.570000
     35 H1          -0.3600    -0.0020    -1.0220 hc         1 1VW       0.053200
     36 H2          -0.3600     0.8830     0.5130 hc         1 1VW       0.053200
     37 H3           1.8900     0.8860    -0.5090 hc         1 1VW       0.051700
     38 H4           1.8900    -0.8860    -0.5090 hc         1 1VW       0.051700
     39 H5           1.6750     0.8840     1.9520 hc         1 1VW       0.046700
     40 H6           3.1230    -0.0020     1.4410 hc         1 1VW       0.046700
     41 H7           1.8900    -2.1340     1.6500 hc         1 1VW       0.069200
     42 H8           1.8890    -1.2480     3.1850 hc         1 1VW       0.069200
     43 H9          -0.3590    -0.3630     2.6710 hc         1 1VW       0.090700
     44 H10         -1.5930    -1.2460     0.7220 hc         1 1VW       0.082700
     45 H11          0.9170    -3.9570     2.4070 hn         1 1VW       0.363700
     46 H12         -2.4160    -2.5750    -2.0710 h1         1 1VW       0.065700
     47 H13         -1.7410    -1.1250    -1.2410 h1         1 1VW       0.065700
     48 H14         -1.6950    -1.1020    -3.7930 hc         1 1VW       0.061700
     49 H15         -0.1360    -0.7990    -2.9550 hc         1 1VW       0.061700
     50 H16          0.9360    -5.7990    -3.5470 ha         1 1VW       0.144000
     51 H17          1.3230    -5.5230    -5.9620 ha         1 1VW       0.133000
     52 H18          0.6760    -3.4160    -7.0760 ha         1 1VW       0.132000
     53 H19         -0.3550    -1.6050    -5.7690 ha         1 1VW       0.130000
     54 H20         -0.9650    -4.8170    -1.7090 h1         1 1VW       0.087700
     55 H21          1.9250    -3.9390    -1.3530 h1         1 1VW       0.103200
     56 H22          0.9610    -4.7820    -0.1320 h1         1 1VW       0.103200
     57 H23          0.1990    -9.9060    -2.2780 ha         1 1VW       0.152000
     58 H24          1.7210   -11.2610    -3.6710 ha         1 1VW       0.143000
     59 H25          3.7480   -10.2600    -4.6340 ha         1 1VW       0.143000
     60 H26          4.2850    -7.8860    -4.2210 ha         1 1VW       0.152000
     61 O1           0.8800    -3.1440     0.5020 o          1 1VW      -0.662100
@<TRIPOS>BOND
     1    29    28 ar  
     2    29    30 ar  
     3    28    27 ar  
     4    26    25 2   
     5    30    31 ar  
     6    27    25 1   
     7    27    32 ar  
     8    25    24 1   
     9    31    32 ar  
    10    32    33 1   
    11    24    33 1   
    12    24    23 1   
    13    33    34 2   
    14    23    22 1   
    15    22    17 1   
    16    22    13 1   
    17     2     1 1   
    18     2     4 1   
    19    18    17 ar  
    20    18    19 ar  
    21    14    13 1   
    22    14    15 1   
    23    17    16 ar  
    24     1     7 1   
    25    13     8 1   
    26    19    20 ar  
    27    16    15 1   
    28    16    21 ar  
    29    20    21 ar  
    30     8    61 2   
    31     8     7 1   
    32     4     5 1   
    33     7     6 1   
    34     5     6 1   
    35     6     3 1   
    36     3     9 1   
    37     3    12 2   
    38     9    10 1   
    39    12    11 1   
    40    10    11 2   
    41     1    35 1   
    42     1    36 1   
    43     2    37 1   
    44     2    38 1   
    45     4    39 1   
    46     4    40 1   
    47     5    41 1   
    48     5    42 1   
    49     6    43 1   
    50     7    44 1   
    51     9    45 1   
    52    14    46 1   
    53    14    47 1   
    54    15    48 1   
    55    15    49 1   
    56    18    50 1   
    57    19    51 1   
    58    20    52 1   
    59    21    53 1   
    60    22    54 1   
    61    23    55 1   
    62    23    56 1   
    63    28    57 1   
    64    29    58 1   
    65    30    59 1   
    66    31    60 1   
@<TRIPOS>SUBSTRUCTURE
     1 1VW         1 TEMP              0 ****  ****    0 ROOT
