@<TRIPOS>MOLECULE
1VW
   61    66     1     0     0
SMALL
bcc


@<TRIPOS>ATOM
      1 C5          -0.1010     0.1230     0.4170 c3         1 1VW      -0.076400
      2 C6           1.4060     0.0700     0.5580 c3         1 1VW      -0.083400
      3 C11         -0.9650    -2.6590     2.9050 cc         1 1VW       0.376800
      4 C7           1.8200    -0.2110     1.9880 c3         1 1VW      -0.075400
      5 C8           1.1990    -1.5000     2.4850 c3         1 1VW      -0.086400
      6 C9          -0.3170    -1.4400     2.3470 c3         1 1VW      -0.072000
      7 C3          -0.7720    -1.1570     0.9100 c3         1 1VW      -0.123700
      8 C2          -0.5020    -2.2950    -0.0720 c          1 1VW       0.671100
      9 N12         -0.5970    -3.9930     2.6490 na         1 1VW      -0.160400
     10 N13         -1.4080    -4.7900     3.3530 nc         1 1VW      -0.199800
     11 N14         -2.2170    -4.0390     4.0120 nd         1 1VW      -0.059000
     12 N15         -2.0100    -2.7460     3.7910 nd         1 1VW      -0.384000
     13 N16         -1.2080    -2.3430    -1.2710 n          1 1VW      -0.439800
     14 C17         -2.3740    -1.5310    -1.5410 c3         1 1VW       0.074000
     15 C18         -3.6990    -2.2670    -1.3250 c3         1 1VW      -0.065100
     16 C19         -3.6620    -3.6670    -1.8240 ca         1 1VW      -0.066300
     17 C20         -2.4520    -4.2870    -2.1690 ca         1 1VW      -0.106300
     18 C21         -2.4480    -5.6200    -2.5940 ca         1 1VW      -0.118000
     19 C22         -3.6420    -6.3310    -2.6890 ca         1 1VW      -0.128000
     20 C23         -4.8480    -5.7140    -2.3540 ca         1 1VW      -0.119000
     21 C24         -4.8570    -4.3910    -1.9220 ca         1 1VW      -0.126000
     22 C25         -1.1360    -3.5480    -2.0900 c3         1 1VW       0.112000
     23 C27         -0.6990    -3.2460    -3.5590 c3         1 1VW       0.102000
     24 N28          0.5460    -2.5580    -3.6980 n          1 1VW      -0.515400
     25 C29          0.6940    -1.1430    -3.6700 c          1 1VW       0.728100
     26 O30         -0.2360    -0.3350    -3.6080 o          1 1VW      -0.574500
     27 C31          2.1640    -0.8640    -3.7540 ca         1 1VW      -0.138100
     28 C32          2.8580     0.3250    -3.7930 ca         1 1VW      -0.063000
     29 C33          4.2630     0.2630    -3.8730 ca         1 1VW      -0.117000
     30 C34          4.9280    -0.9560    -3.9110 ca         1 1VW      -0.117000
     31 C35          4.2200    -2.1740    -3.8740 ca         1 1VW      -0.063000
     32 C36          2.8460    -2.1140    -3.7960 ca         1 1VW      -0.138100
     33 C37          1.8170    -3.2020    -3.7470 c          1 1VW       0.728100
     34 O38          1.9840    -4.4230    -3.7690 o          1 1VW      -0.574500
     35 H1          -0.5030     0.9840     1.0150 hc         1 1VW       0.056700
     36 H2          -0.3690     0.3020    -0.6580 hc         1 1VW       0.056700
     37 H3           1.8120    -0.7370    -0.1080 hc         1 1VW       0.050200
     38 H4           1.8430     1.0460     0.2230 hc         1 1VW       0.050200
     39 H5           2.9370    -0.2910     2.0470 hc         1 1VW       0.045200
     40 H6           1.5070     0.6410     2.6470 hc         1 1VW       0.045200
     41 H7           1.4660    -1.6600     3.5620 hc         1 1VW       0.063700
     42 H8           1.6070    -2.3630     1.8940 hc         1 1VW       0.063700
     43 H9          -0.6790    -0.5610     2.9640 hc         1 1VW       0.089700
     44 H10         -1.8870    -0.9910     0.9660 hc         1 1VW       0.076700
     45 H11          0.0850    -4.3240     1.9980 hn         1 1VW       0.357700
     46 H12         -2.3640    -0.5940    -0.9200 h1         1 1VW       0.069200
     47 H13         -2.2990    -1.2040    -2.6210 h1         1 1VW       0.069200
     48 H14         -4.5090    -1.6920    -1.8490 hc         1 1VW       0.062700
     49 H15         -3.9520    -2.2810    -0.2300 hc         1 1VW       0.062700
     50 H16         -1.4950    -6.1090    -2.8490 ha         1 1VW       0.140000
     51 H17         -3.6320    -7.3790    -3.0230 ha         1 1VW       0.136000
     52 H18         -5.7920    -6.2750    -2.4280 ha         1 1VW       0.135000
     53 H19         -5.8070    -3.9060    -1.6510 ha         1 1VW       0.135000
     54 H20         -0.3610    -4.2420    -1.6370 h1         1 1VW       0.108700
     55 H21         -1.4960    -2.6310    -4.0670 h1         1 1VW       0.077200
     56 H22         -0.6090    -4.2440    -4.0790 h1         1 1VW       0.077200
     57 H23          2.3370     1.2940    -3.7660 ha         1 1VW       0.159000
     58 H24          4.8380     1.2020    -3.9050 ha         1 1VW       0.144500
     59 H25          6.0270    -0.9810    -3.9720 ha         1 1VW       0.144500
     60 H26          4.7500    -3.1380    -3.9060 ha         1 1VW       0.159000
     61 O1           0.3920    -3.1440     0.1430 o          1 1VW      -0.643100
@<TRIPOS>BOND
     1     1     2 1   
     2     1     7 1   
     3     1    35 1   
     4     1    36 1   
     5     2     4 1   
     6     2    37 1   
     7     2    38 1   
     8     3     6 1   
     9     3     9 1   
    10     3    12 2   
    11     4     5 1   
    12     4    39 1   
    13     4    40 1   
    14     5     6 1   
    15     5    41 1   
    16     5    42 1   
    17     6     7 1   
    18     6    43 1   
    19     7     8 1   
    20     7    44 1   
    21     8    13 1   
    22     8    61 2   
    23     9    10 1   
    24     9    45 1   
    25    10    11 2   
    26    11    12 1   
    27    13    14 1   
    28    13    22 1   
    29    14    15 1   
    30    14    46 1   
    31    14    47 1   
    32    15    16 1   
    33    15    48 1   
    34    15    49 1   
    35    16    17 ar  
    36    16    21 ar  
    37    17    18 ar  
    38    17    22 1   
    39    18    19 ar  
    40    18    50 1   
    41    19    20 ar  
    42    19    51 1   
    43    20    21 ar  
    44    20    52 1   
    45    21    53 1   
    46    22    23 1   
    47    22    54 1   
    48    23    24 1   
    49    23    55 1   
    50    23    56 1   
    51    24    25 1   
    52    24    33 1   
    53    25    26 2   
    54    25    27 1   
    55    27    28 ar  
    56    27    32 ar  
    57    28    29 ar  
    58    28    57 1   
    59    29    30 ar  
    60    29    58 1   
    61    30    31 ar  
    62    30    59 1   
    63    31    32 ar  
    64    31    60 1   
    65    32    33 1   
    66    33    34 2   
@<TRIPOS>SUBSTRUCTURE
     1 1VW         1 TEMP              0 ****  ****    0 ROOT
