@<TRIPOS>MOLECULE
1VX
   62    66     1     0     0
SMALL
bcc


@<TRIPOS>ATOM
      1 C4           0.3770    -0.4850    -0.2980 ca         1 1VX      -0.150000
      2 C5           1.7430    -0.2310    -0.2180 ca         1 1VX      -0.131000
      3 C6           2.3720    -0.1330     1.0280 ca         1 1VX      -0.096300
      4 C11          3.8590     0.1340     1.0630 c3         1 1VX       0.113000
      5 C7           1.6290    -0.3080     2.2040 ca         1 1VX      -0.024300
      6 C8           2.2900    -0.2560     3.5300 c3         1 1VX      -0.089100
      7 C9           3.6970     0.3420     3.4830 c3         1 1VX       0.073000
      8 C13          4.0610     1.5990     0.5570 c3         1 1VX       0.094000
      9 C3          -0.3660    -0.6610     0.8680 ca         1 1VX      -0.133000
     10 C2           0.2500    -0.5840     2.1190 ca         1 1VX      -0.078300
     11 N10          4.4900    -0.0910     2.3550 n          1 1VX      -0.447800
     12 N14          5.4100     2.0480     0.3930 n          1 1VX      -0.461800
     13 C15          6.4290     1.2140    -0.2500 c3         1 1VX       0.106300
     14 C16          7.7420     1.8660     0.1110 ca         1 1VX      -0.067300
     15 C17          9.0370     1.5520    -0.2560 ca         1 1VX      -0.123000
     16 C18         10.0790     2.3400     0.2550 ca         1 1VX      -0.112000
     17 C19          9.8220     3.4100     1.1080 ca         1 1VX      -0.154000
     18 C20          8.5090     3.7330     1.4840 ca         1 1VX      -0.062000
     19 C21          7.4820     2.9590     0.9790 ca         1 1VX      -0.153600
     20 C22          6.0030     3.0400     1.1970 c          1 1VX       0.713100
     21 O23          5.3910     3.8630     1.8940 o          1 1VX      -0.624500
     22 C24          5.5090    -1.0460     2.4490 c          1 1VX       0.690100
     23 O25          5.9050    -1.5900     1.3910 o          1 1VX      -0.661100
     24 C26          6.2390    -1.2820     3.7700 c3         1 1VX      -0.095700
     25 C28          7.7430    -1.3870     3.5110 c3         1 1VX      -0.060400
     26 C29          8.1650    -2.6910     2.8640 c3         1 1VX      -0.078400
     27 C30          7.6070    -3.9050     3.5780 c3         1 1VX      -0.072400
     28 C31          6.1070    -3.7850     3.7640 c3         1 1VX      -0.063400
     29 C32          5.7760    -2.5220     4.5310 c3         1 1VX      -0.169700
     30 C34          4.2990    -2.4490     4.9620 c          1 1VX       0.903600
     31 O35          3.4540    -3.2370     4.4530 o          1 1VX      -0.842800
     32 O36          4.0010    -1.5850     5.8420 o          1 1VX      -0.842800
     33 H1          -0.1130    -0.5580    -1.2780 ha         1 1VX       0.115000
     34 H2           2.3330    -0.1170    -1.1390 ha         1 1VX       0.119000
     35 H3           4.3340    -0.5640     0.3030 h1         1 1VX       0.090700
     36 H4           2.3550    -1.3070     3.9540 hc         1 1VX       0.100200
     37 H5           1.6800     0.3520     4.2490 hc         1 1VX       0.100200
     38 H6           4.2010     0.0710     4.4580 h1         1 1VX       0.075700
     39 H7           3.6210     1.4660     3.4170 h1         1 1VX       0.075700
     40 H8           3.5420     2.3100     1.2630 h1         1 1VX       0.060700
     41 H9           3.5580     1.6620    -0.4520 h1         1 1VX       0.060700
     42 H10         -1.4430    -0.8740     0.8020 ha         1 1VX       0.117000
     43 H11         -0.6010     0.1360     3.9510 hc         1 1VX       0.045700
     44 H12         -0.0380    -1.5860     3.9890 hc         1 1VX       0.045700
     45 H13         -1.5750    -1.1490     3.1190 hc         1 1VX       0.045700
     46 H14          6.3950     0.1490     0.1240 h1         1 1VX       0.084700
     47 H15          6.2630     1.2200    -1.3610 h1         1 1VX       0.084700
     48 H16          9.2520     0.7030    -0.9200 ha         1 1VX       0.139000
     49 H17         11.1170     2.1010    -0.0220 ha         1 1VX       0.125000
     50 H18         10.6560     4.0100     1.5000 ha         1 1VX       0.127000
     51 H19          8.3020     4.5720     2.1630 ha         1 1VX       0.148000
     52 H20          6.0780    -0.3950     4.4470 hc         1 1VX       0.072700
     53 H21          8.0690    -0.5340     2.8600 hc         1 1VX       0.028200
     54 H22          8.2640    -1.2800     4.5000 hc         1 1VX       0.028200
     55 H23          9.2860    -2.7440     2.8520 hc         1 1VX       0.036700
     56 H24          7.8110    -2.7010     1.7980 hc         1 1VX       0.036700
     57 H25          7.8450    -4.8250     2.9850 hc         1 1VX       0.018200
     58 H26          8.1020    -4.0140     4.5790 hc         1 1VX       0.018200
     59 H27          5.7110    -4.6700     4.3250 hc         1 1VX       0.055700
     60 H28          5.5930    -3.7610     2.7680 hc         1 1VX       0.055700
     61 H29          6.3650    -2.5300     5.4950 hc         1 1VX       0.043700
     62 C1          -0.5370    -0.8080     3.3540 c3         1 1VX      -0.055800
@<TRIPOS>BOND
     1     1     2 ar  
     2     1     9 ar  
     3     1    33 1   
     4     2     3 ar  
     5     2    34 1   
     6     3     4 1   
     7     3     5 ar  
     8     4     8 1   
     9     4    11 1   
    10     4    35 1   
    11     5     6 1   
    12     5    10 ar  
    13     6     7 1   
    14     6    36 1   
    15     6    37 1   
    16     7    11 1   
    17     7    38 1   
    18     7    39 1   
    19     8    12 1   
    20     8    40 1   
    21     8    41 1   
    22     9    10 ar  
    23     9    42 1   
    24    10    62 1   
    25    11    22 1   
    26    12    13 1   
    27    12    20 1   
    28    13    14 1   
    29    13    46 1   
    30    13    47 1   
    31    14    15 ar  
    32    14    19 ar  
    33    15    16 ar  
    34    15    48 1   
    35    16    17 ar  
    36    16    49 1   
    37    17    18 ar  
    38    17    50 1   
    39    18    19 ar  
    40    18    51 1   
    41    19    20 1   
    42    20    21 2   
    43    22    23 2   
    44    22    24 1   
    45    24    25 1   
    46    24    29 1   
    47    24    52 1   
    48    25    26 1   
    49    25    53 1   
    50    25    54 1   
    51    26    27 1   
    52    26    55 1   
    53    26    56 1   
    54    27    28 1   
    55    27    57 1   
    56    27    58 1   
    57    28    29 1   
    58    28    59 1   
    59    28    60 1   
    60    29    30 1   
    61    29    61 1   
    62    30    31 1   
    63    30    32 1   
    64    43    62 1   
    65    44    62 1   
    66    45    62 1   
@<TRIPOS>SUBSTRUCTURE
     1 1VX         1 TEMP              0 ****  ****    0 ROOT
