@<TRIPOS>MOLECULE
molecule
   62    66     1     0     0
SMALL
bcc


@<TRIPOS>ATOM
      1 C4           0.0000     0.0000     0.0000 ca         1 1VX      -0.137000
      2 C5           1.3790     0.0000     0.0000 ca         1 1VX      -0.134000
      3 C6           2.0840     0.0000     1.1960 ca         1 1VX      -0.079300
      4 C11          3.5900     0.0260     1.1260 c3         1 1VX       0.125000
      5 C7           1.4040    -0.0100     2.3920 ca         1 1VX      -0.048300
      6 C8           2.0990    -0.0440     3.7280 c3         1 1VX      -0.063100
      7 C9           3.5420     0.4390     3.6010 c3         1 1VX       0.113000
      8 C13          4.0540     1.4050     0.6530 c3         1 1VX       0.126000
      9 C3          -0.6860     0.0010     1.2010 ca         1 1VX      -0.134000
     10 C2           0.0140    -0.0040     2.3890 ca         1 1VX      -0.090300
     11 N10          4.1520    -0.2500     2.4520 n          1 1VX      -0.489800
     12 N14          5.5140     1.4140     0.5300 n          1 1VX      -0.505800
     13 C15          6.2760     0.9510    -0.6350 c3         1 1VX       0.148300
     14 C16          7.7320     1.1560    -0.2950 ca         1 1VX      -0.108300
     15 C17          8.9020     0.9160    -0.9780 ca         1 1VX      -0.122000
     16 C18         10.1190     1.2160    -0.3920 ca         1 1VX      -0.116000
     17 C19         10.1630     1.7590     0.8810 ca         1 1VX      -0.129000
     18 C20          8.9960     2.0050     1.5740 ca         1 1VX      -0.009000
     19 C21          7.7650     1.7040     0.9880 ca         1 1VX      -0.077600
     20 C22          6.3760     1.8530     1.4640 c          1 1VX       0.746100
     21 O23          6.0560     2.3070     2.5450 o          1 1VX      -0.627500
     22 C24          5.1850    -1.1010     2.6120 c          1 1VX       0.705100
     23 O25          5.5870    -1.3630     3.7260 o          1 1VX      -0.574100
     24 C26          5.8390    -1.7270     1.4070 c3         1 1VX      -0.126700
     25 C28          4.8750    -2.7270     0.7650 c3         1 1VX      -0.087400
     26 C29          4.5220    -3.8180     1.7780 c3         1 1VX      -0.077400
     27 C30          5.7960    -4.5450     2.2100 c3         1 1VX      -0.084400
     28 C31          6.7610    -3.5450     2.8530 c3         1 1VX      -0.075400
     29 C32          7.1140    -2.4540     1.8400 c3         1 1VX      -0.147700
     30 C34          8.0640    -1.4700     2.4730 c          1 1VX       0.905600
     31 O35          9.2550    -1.8860     2.9310 o          1 1VX      -0.849300
     32 O36          7.7530    -0.3060     2.5680 o          1 1VX      -0.849300
     33 H1          -0.5440     0.0040    -0.9370 ha         1 1VX       0.120000
     34 H2           1.9170    -0.0010    -0.9410 ha         1 1VX       0.125000
     35 H3           3.9290    -0.7320     0.4290 h1         1 1VX       0.089700
     36 H4           2.0960    -1.0600     4.1040 hc         1 1VX       0.053200
     37 H5           1.5690     0.6000     4.4200 hc         1 1VX       0.053200
     38 H6           4.0890     0.1960     4.5050 h1         1 1VX       0.071700
     39 H7           3.5560     1.5090     3.4350 h1         1 1VX       0.071700
     40 H8           3.6090     1.6240    -0.3110 h1         1 1VX       0.053200
     41 H9           3.7470     2.1550     1.3710 h1         1 1VX       0.053200
     42 H10         -1.7690     0.0010     1.2080 ha         1 1VX       0.120000
     43 H11         -0.4400    -0.8640     4.2830 hc         1 1VX       0.039700
     44 H12         -0.5060     0.9030     4.2440 hc         1 1VX       0.039700
     45 H13         -1.8010    -0.0470     3.5020 hc         1 1VX       0.039700
     46 H14          6.0820    -0.1000    -0.8110 h1         1 1VX       0.042700
     47 H15          6.0130     1.5360    -1.5070 h1         1 1VX       0.042700
     48 H16          8.8710     0.4910    -1.9740 ha         1 1VX       0.109000
     49 H17         11.0400     1.0260    -0.9300 ha         1 1VX       0.115000
     50 H18         11.1180     1.9930     1.3350 ha         1 1VX       0.123000
     51 H19          9.0340     2.4300     2.5700 ha         1 1VX       0.147000
     52 H20          6.0910    -0.9580     0.6870 hc         1 1VX       0.069700
     53 H21          5.3480    -3.1780    -0.0990 hc         1 1VX       0.028700
     54 H22          3.9720    -2.2110     0.4610 hc         1 1VX       0.028700
     55 H23          4.0530    -3.3660     2.6440 hc         1 1VX       0.029700
     56 H24          3.8410    -4.5260     1.3210 hc         1 1VX       0.029700
     57 H25          5.5440    -5.3150     2.9290 hc         1 1VX       0.021200
     58 H26          6.2660    -4.9930     1.3430 hc         1 1VX       0.021200
     59 H27          6.2880    -3.0940     3.7170 hc         1 1VX       0.071200
     60 H28          7.6640    -4.0610     3.1560 hc         1 1VX       0.071200
     61 H29          7.5810    -2.9070     0.9730 hc         1 1VX       0.037700
     62 C1          -0.7360    -0.0030     3.6970 c3         1 1VX      -0.044800
@<TRIPOS>BOND
     1    18    17 ar  
     2    18    19 ar  
     3    17    16 ar  
     4    21    20 2   
     5    19    20 1   
     6    19    14 ar  
     7    20    12 1   
     8    16    15 ar  
     9    14    15 ar  
    10    14    13 1   
    11    12    13 1   
    12    12     8 1   
    13     8     4 1   
    14     2     1 ar  
    15     2     3 ar  
    16     1     9 ar  
    17     4     3 1   
    18     4    11 1   
    19     3     5 ar  
    20     7    11 1   
    21     7     6 1   
    22     9    10 ar  
    23     5    10 ar  
    24     5     6 1   
    25    11    22 1   
    26    10    62 1   
    27    26    25 1   
    28    26    27 1   
    29    25    24 1   
    30    22    23 2   
    31    22    24 1   
    32    24    29 1   
    33    27    28 1   
    34    28    29 1   
    35    29    30 1   
    36    30    32 1   
    37    30    31 1   
    38     1    33 1   
    39     2    34 1   
    40     4    35 1   
    41     6    36 1   
    42     6    37 1   
    43     7    38 1   
    44     7    39 1   
    45     8    40 1   
    46     8    41 1   
    47     9    42 1   
    48    62    43 1   
    49    62    44 1   
    50    62    45 1   
    51    13    46 1   
    52    13    47 1   
    53    15    48 1   
    54    16    49 1   
    55    17    50 1   
    56    18    51 1   
    57    24    52 1   
    58    25    53 1   
    59    25    54 1   
    60    26    55 1   
    61    26    56 1   
    62    27    57 1   
    63    27    58 1   
    64    28    59 1   
    65    28    60 1   
    66    29    61 1   
@<TRIPOS>SUBSTRUCTURE
     1 1VX         1 TEMP              0 ****  ****    0 ROOT
