@<TRIPOS>MOLECULE
1VX
   62    66     1     0     0
SMALL
bcc


@<TRIPOS>ATOM
      1 C4           0.0000     0.0000     0.0000 ca         1 1VX      -0.112000
      2 C5           1.3790     0.0000     0.0000 ca         1 1VX      -0.108000
      3 C6           2.0840     0.0000     1.1960 ca         1 1VX      -0.077300
      4 C11          3.5900     0.0260     1.1260 c3         1 1VX       0.031000
      5 C7           1.4040    -0.0100     2.3920 ca         1 1VX      -0.052300
      6 C8           2.0990    -0.0440     3.7280 c3         1 1VX      -0.000100
      7 C9           3.5420     0.4390     3.6010 c3         1 1VX       0.049000
      8 C13          4.0540     1.4050     0.6530 c3         1 1VX       0.069000
      9 C3          -0.6860     0.0010     1.2010 ca         1 1VX      -0.110000
     10 C2           0.0140    -0.0040     2.3890 ca         1 1VX      -0.097300
     11 N10          4.1520    -0.2500     2.4520 n          1 1VX      -0.163800
     12 N14          5.5140     1.4140     0.5300 n          1 1VX      -0.188800
     13 C15          6.2760     0.9510    -0.6350 c3         1 1VX       0.116300
     14 C16          7.7320     1.1560    -0.2950 ca         1 1VX      -0.119300
     15 C17          8.9020     0.9160    -0.9780 ca         1 1VX      -0.094000
     16 C18         10.1190     1.2160    -0.3920 ca         1 1VX      -0.091000
     17 C19         10.1630     1.7590     0.8810 ca         1 1VX      -0.106000
     18 C20          8.9960     2.0050     1.5740 ca         1 1VX       0.035000
     19 C21          7.7650     1.7040     0.9880 ca         1 1VX      -0.086600
     20 C22          6.3760     1.8530     1.4640 c          1 1VX       0.688100
     21 O23          6.0560     2.3070     2.5450 o          1 1VX      -0.668500
     22 C24          5.1850    -1.1010     2.6120 c          1 1VX       0.633100
     23 O25          5.5870    -1.3630     3.7260 o          1 1VX      -0.599100
     24 C26          5.8390    -1.7270     1.4070 c3         1 1VX      -0.124700
     25 C28          4.8750    -2.7270     0.7650 c3         1 1VX      -0.042400
     26 C29          4.5220    -3.8180     1.7780 c3         1 1VX      -0.027400
     27 C30          5.7960    -4.5450     2.2100 c3         1 1VX      -0.026400
     28 C31          6.7610    -3.5450     2.8530 c3         1 1VX      -0.053400
     29 C32          7.1140    -2.4540     1.8400 c3         1 1VX      -0.122700
     30 C34          8.0640    -1.4700     2.4730 c          1 1VX       0.993600
     31 O35          9.2550    -1.8860     2.9310 o          1 1VX      -0.900300
     32 O36          7.7530    -0.3060     2.5680 o          1 1VX      -0.900300
     33 H1          -0.5440     0.0040    -0.9370 ha         1 1VX       0.095000
     34 H2           1.9170    -0.0010    -0.9410 ha         1 1VX       0.102000
     35 H3           3.9290    -0.7320     0.4290 h1         1 1VX       0.076700
     36 H4           2.0960    -1.0600     4.1040 hc         1 1VX       0.026200
     37 H5           1.5690     0.6000     4.4200 hc         1 1VX       0.026200
     38 H6           4.0890     0.1960     4.5050 h1         1 1VX       0.046700
     39 H7           3.5560     1.5090     3.4350 h1         1 1VX       0.046700
     40 H8           3.6090     1.6240    -0.3110 h1         1 1VX       0.027200
     41 H9           3.7470     2.1550     1.3710 h1         1 1VX       0.027200
     42 H10         -1.7690     0.0010     1.2080 ha         1 1VX       0.099000
     43 H11         -0.4400    -0.8640     4.2830 hc         1 1VX       0.007033
     44 H12         -0.5060     0.9030     4.2440 hc         1 1VX       0.007033
     45 H13         -1.8010    -0.0470     3.5020 hc         1 1VX       0.007033
     46 H14          6.0820    -0.1000    -0.8110 h1         1 1VX       0.013200
     47 H15          6.0130     1.5360    -1.5070 h1         1 1VX       0.013200
     48 H16          8.8710     0.4910    -1.9740 ha         1 1VX       0.085000
     49 H17         11.0400     1.0260    -0.9300 ha         1 1VX       0.088000
     50 H18         11.1180     1.9930     1.3350 ha         1 1VX       0.095000
     51 H19          9.0340     2.4300     2.5700 ha         1 1VX       0.113000
     52 H20          6.0910    -0.9580     0.6870 hc         1 1VX       0.053700
     53 H21          5.3480    -3.1780    -0.0990 hc         1 1VX       0.008200
     54 H22          3.9720    -2.2110     0.4610 hc         1 1VX       0.008200
     55 H23          4.0530    -3.3660     2.6440 hc         1 1VX       0.004700
     56 H24          3.8410    -4.5260     1.3210 hc         1 1VX       0.004700
     57 H25          5.5440    -5.3150     2.9290 hc         1 1VX      -0.003800
     58 H26          6.2660    -4.9930     1.3430 hc         1 1VX      -0.003800
     59 H27          6.2880    -3.0940     3.7170 hc         1 1VX       0.052200
     60 H28          7.6640    -4.0610     3.1560 hc         1 1VX       0.052200
     61 H29          7.5810    -2.9070     0.9730 hc         1 1VX       0.016700
     62 C1          -0.7360    -0.0030     3.6970 c3         1 1VX       0.061200
@<TRIPOS>BOND
     1     1     2 ar  
     2     1     9 ar  
     3     1    33 1   
     4     2     3 ar  
     5     2    34 1   
     6     3     4 1   
     7     3     5 ar  
     8     4     8 1   
     9     4    11 1   
    10     4    35 1   
    11     5     6 1   
    12     5    10 ar  
    13     6     7 1   
    14     6    36 1   
    15     6    37 1   
    16     7    11 1   
    17     7    38 1   
    18     7    39 1   
    19     8    12 1   
    20     8    40 1   
    21     8    41 1   
    22     9    10 ar  
    23     9    42 1   
    24    10    62 1   
    25    11    22 1   
    26    12    13 1   
    27    12    20 1   
    28    13    14 1   
    29    13    46 1   
    30    13    47 1   
    31    14    15 ar  
    32    14    19 ar  
    33    15    16 ar  
    34    15    48 1   
    35    16    17 ar  
    36    16    49 1   
    37    17    18 ar  
    38    17    50 1   
    39    18    19 ar  
    40    18    51 1   
    41    19    20 1   
    42    20    21 2   
    43    22    23 2   
    44    22    24 1   
    45    24    25 1   
    46    24    29 1   
    47    24    52 1   
    48    25    26 1   
    49    25    53 1   
    50    25    54 1   
    51    26    27 1   
    52    26    55 1   
    53    26    56 1   
    54    27    28 1   
    55    27    57 1   
    56    27    58 1   
    57    28    29 1   
    58    28    59 1   
    59    28    60 1   
    60    29    30 1   
    61    29    61 1   
    62    30    31 1   
    63    30    32 1   
    64    43    62 1   
    65    44    62 1   
    66    45    62 1   
@<TRIPOS>SUBSTRUCTURE
     1 1VX         1 TEMP              0 ****  ****    0 ROOT
