@<TRIPOS>MOLECULE
1VY
   39    40     1     0     0
SMALL
bcc


@<TRIPOS>ATOM
      1 O7           0.0020     0.2850    -0.2730 oh         1 1VY      -0.498100
      2 C7           1.3550     0.1190    -0.1070 cc         1 1VY       0.163500
      3 C6           1.9610    -0.1230     1.1440 cd         1 1VY       0.209600
      4 C9           1.1180    -0.2340     2.3680 c3         1 1VY      -0.135400
      5 N5           3.3200    -0.2620     1.2460 nd         1 1VY      -0.481000
      6 C4A          4.0430    -0.1800     0.1460 cc         1 1VY       0.241800
      7 C4           5.5360    -0.3240     0.2250 c          1 1VY       0.620000
      8 O4           6.1560    -0.4750     1.2880 o          1 1VY      -0.575500
      9 N3           6.2290    -0.2790    -0.9820 ns         1 1VY      -0.612500
     10 C2           5.6020    -0.1020    -2.2380 c          1 1VY       0.851900
     11 O2           6.3120    -0.1010    -3.2600 o          1 1VY      -0.589500
     12 N1           4.1980     0.0650    -2.3260 nd         1 1VY      -0.430400
     13 C8A          3.4790     0.0440    -1.2160 cc         1 1VY       0.092400
     14 N8           2.0790     0.2480    -1.2790 na         1 1VY      -0.077100
     15 C1'          1.3900     0.5250    -2.5300 c3         1 1VY      -0.013700
     16 C2'          0.7820    -0.6960    -3.2520 c3         1 1VY       0.120100
     17 O2'          0.1020    -1.5620    -2.3620 oh         1 1VY      -0.591800
     18 C3'          1.8590    -1.5310    -3.9700 c3         1 1VY       0.155100
     19 O3'          2.5050    -0.6540    -4.8770 oh         1 1VY      -0.608800
     20 C4'          1.2220    -2.7080    -4.7310 c3         1 1VY       0.125100
     21 O4'          2.2550    -3.6690    -4.8960 oh         1 1VY      -0.604800
     22 C5'          0.6660    -2.2770    -6.0910 c3         1 1VY       0.098400
     23 O5'          0.1530    -3.4520    -6.6990 oh         1 1VY      -0.615800
     24 H1           0.3930    -1.0780     2.2590 hc         1 1VY       0.057367
     25 H2           0.5540     0.7180     2.5340 hc         1 1VY       0.057367
     26 H3           1.7430    -0.4290     3.2760 hc         1 1VY       0.057367
     27 H5           7.2220    -0.3830    -0.9640 hn         1 1VY       0.350500
     28 H6           0.5540     1.2470    -2.2930 h1         1 1VY       0.099700
     29 H7           2.1040     1.0240    -3.2500 h1         1 1VY       0.099700
     30 H8           0.0650    -0.2870    -4.0210 h1         1 1VY       0.058700
     31 H9          -0.6130    -1.0470    -1.9660 ho         1 1VY       0.410000
     32 H10          2.5760    -1.9560    -3.2160 h1         1 1VY       0.078700
     33 H11          3.4560    -0.8050    -4.7950 ho         1 1VY       0.440000
     34 H12          0.3970    -3.1530    -4.1040 h1         1 1VY       0.067700
     35 H13          1.8970    -4.3620    -5.4670 ho         1 1VY       0.422000
     36 H14          1.4830    -1.8280    -6.7160 h1         1 1VY       0.043200
     37 H15         -0.1570    -1.5280    -5.9540 h1         1 1VY       0.043200
     38 H16         -0.0060    -3.2390    -7.6250 ho         1 1VY       0.408000
     39 H17         -0.4230     0.1780     0.5950 ho         1 1VY       0.465000
@<TRIPOS>BOND
     1     1     2 1   
     2     1    39 1   
     3     2     3 2   
     4     2    14 1   
     5     3     4 1   
     6     3     5 1   
     7     4    24 1   
     8     4    25 1   
     9     4    26 1   
    10     5     6 2   
    11     6     7 1   
    12     6    13 1   
    13     7     8 2   
    14     7     9 1   
    15     9    10 1   
    16     9    27 1   
    17    10    11 2   
    18    10    12 1   
    19    12    13 2   
    20    13    14 1   
    21    14    15 1   
    22    15    16 1   
    23    15    28 1   
    24    15    29 1   
    25    16    17 1   
    26    16    18 1   
    27    16    30 1   
    28    17    31 1   
    29    18    19 1   
    30    18    20 1   
    31    18    32 1   
    32    19    33 1   
    33    20    21 1   
    34    20    22 1   
    35    20    34 1   
    36    21    35 1   
    37    22    23 1   
    38    22    36 1   
    39    22    37 1   
    40    23    38 1   
@<TRIPOS>SUBSTRUCTURE
     1 1VY         1 TEMP              0 ****  ****    0 ROOT
