@<TRIPOS>MOLECULE
molecule
   39    40     1     0     0
SMALL
bcc


@<TRIPOS>ATOM
      1 O7           0.0000     0.0000     0.0000 oh         1 1VY      -0.473100
      2 C7           1.3480     0.0000     0.0000 cc         1 1VY       0.143500
      3 C6           2.0420     0.0000     1.2070 cc         1 1VY       0.268600
      4 C9           1.2760     0.0060     2.5040 c3         1 1VY      -0.122400
      5 N5           3.3590    -0.0070     1.2330 nc         1 1VY      -0.516000
      6 C4A          4.0530    -0.0120     0.1050 cd         1 1VY       0.239800
      7 C4           5.5250    -0.0190     0.1020 c          1 1VY       0.617000
      8 O4           6.1590    -0.0200     1.1420 o          1 1VY      -0.580500
      9 N3           6.1480    -0.0250    -1.0990 ns         1 1VY      -0.590500
     10 C2           5.4350    -0.0240    -2.2370 c          1 1VY       0.858900
     11 O2           6.0360    -0.0280    -3.2980 o          1 1VY      -0.613500
     12 N1           4.1070    -0.0170    -2.2630 nc         1 1VY      -0.477400
     13 C8A          3.3890    -0.0110    -1.1460 cd         1 1VY       0.074400
     14 N8           2.0220    -0.0050    -1.1730 na         1 1VY      -0.050100
     15 C1'          1.3010    -0.0120    -2.4490 c3         1 1VY       0.017300
     16 C2'          1.0500     1.4290    -2.9000 c3         1 1VY       0.129100
     17 O2'          0.2690     2.1070    -1.9130 oh         1 1VY      -0.578800
     18 C3'          0.2960     1.4230    -4.2310 c3         1 1VY       0.139100
     19 O3'          1.0780     0.7450    -5.2170 oh         1 1VY      -0.591800
     20 C4'          0.0460     2.8630    -4.6810 c3         1 1VY       0.139100
     21 O4'         -0.7360     3.5410    -3.6960 oh         1 1VY      -0.593800
     22 C5'         -0.7080     2.8570    -6.0130 c3         1 1VY       0.108400
     23 O5'         -0.8400     4.1970    -6.4920 oh         1 1VY      -0.614800
     24 H1           1.9670     0.1110     3.3320 hc         1 1VY       0.058367
     25 H2           0.7310    -0.9250     2.6060 hc         1 1VY       0.058367
     26 H3           0.5790     0.8350     2.5080 hc         1 1VY       0.058367
     27 H5           7.1480    -0.0300    -1.1390 hn         1 1VY       0.355500
     28 H6           1.8930    -0.5260    -3.1960 h1         1 1VY       0.095200
     29 H7           0.3530    -0.5220    -2.3260 h1         1 1VY       0.095200
     30 H8           1.9970     1.9390    -3.0230 h1         1 1VY       0.071700
     31 H9           0.7150     2.8930    -1.6450 ho         1 1VY       0.412000
     32 H10         -0.6520     0.9130    -4.1080 h1         1 1VY       0.055700
     33 H11          0.5540     0.0770    -5.6290 ho         1 1VY       0.408000
     34 H12          0.9930     3.3740    -4.8050 h1         1 1VY       0.057700
     35 H13         -0.6500     4.4730    -3.8120 ho         1 1VY       0.416000
     36 H14         -0.1570     2.2680    -6.7370 h1         1 1VY       0.032700
     37 H15         -1.6910     2.4260    -5.8700 h1         1 1VY       0.032700
     38 H16         -1.2200     4.1860    -7.3550 ho         1 1VY       0.410000
     39 H17         -0.3140    -0.8480     0.2650 ho         1 1VY       0.448000
@<TRIPOS>BOND
     1     8     7 2
     2     7     9 1
     3     7     6 1
     4     5     6 2
     5     5     3 1
     6     9    10 1
     7     6    13 1
     8     4     3 1
     9     3     2 2
    10    21    20 1
    11    10    11 2
    12    10    12 1
    13    13    12 2
    14    13    14 1
    15    17    16 1
    16     2    14 1
    17     2     1 1
    18    18    20 1
    19    18    19 1
    20    18    16 1
    21    20    22 1
    22    14    15 1
    23    16    15 1
    24    22    23 1
    25     4    24 1
    26     4    25 1
    27     4    26 1
    28     9    27 1
    29    15    28 1
    30    15    29 1
    31    16    30 1
    32    17    31 1
    33    18    32 1
    34    19    33 1
    35    20    34 1
    36    21    35 1
    37    22    36 1
    38    22    37 1
    39    23    38 1
    40     1    39 1
@<TRIPOS>SUBSTRUCTURE
     1 1VY         1 TEMP              0 ****  ****    0 ROOT
