@<TRIPOS>MOLECULE
1VY
   39    40     1     0     0
SMALL
bcc


@<TRIPOS>ATOM
      1 O7           0.0000     0.0000     0.0000 oh         1 1VY      -0.452100
      2 C7           1.3480     0.0000     0.0000 cc         1 1VY      -0.012500
      3 C6           2.0420     0.0000     1.2070 cd         1 1VY       0.192600
      4 C9           1.2760     0.0060     2.5040 c3         1 1VY      -0.015400
      5 N5           3.3590    -0.0070     1.2330 nd         1 1VY      -0.361000
      6 C4A          4.0530    -0.0120     0.1050 cc         1 1VY       0.161800
      7 C4           5.5250    -0.0190     0.1020 c          1 1VY       0.530000
      8 O4           6.1590    -0.0200     1.1420 o          1 1VY      -0.629500
      9 N3           6.1480    -0.0250    -1.0990 ns         1 1VY      -0.169500
     10 C2           5.4350    -0.0240    -2.2370 c          1 1VY       0.737900
     11 O2           6.0360    -0.0280    -3.2980 o          1 1VY      -0.663500
     12 N1           4.1070    -0.0170    -2.2630 nd         1 1VY      -0.402400
     13 C8A          3.3890    -0.0110    -1.1460 cc         1 1VY      -0.127600
     14 N8           2.0220    -0.0050    -1.1730 na         1 1VY       0.439900
     15 C1'          1.3010    -0.0120    -2.4490 c3         1 1VY      -0.091700
     16 C2'          1.0500     1.4290    -2.9000 c3         1 1VY       0.166100
     17 O2'          0.2690     2.1070    -1.9130 oh         1 1VY      -0.563800
     18 C3'          0.2960     1.4230    -4.2310 c3         1 1VY       0.171100
     19 O3'          1.0780     0.7450    -5.2170 oh         1 1VY      -0.569800
     20 C4'          0.0460     2.8630    -4.6810 c3         1 1VY       0.165100
     21 O4'         -0.7360     3.5410    -3.6960 oh         1 1VY      -0.575800
     22 C5'         -0.7080     2.8570    -6.0130 c3         1 1VY       0.187400
     23 O5'         -0.8400     4.1970    -6.4920 oh         1 1VY      -0.596800
     24 H1           1.9670     0.1110     3.3320 hc         1 1VY       0.017367
     25 H2           0.7310    -0.9250     2.6060 hc         1 1VY       0.017367
     26 H3           0.5790     0.8350     2.5080 hc         1 1VY       0.017367
     27 H5           7.1480    -0.0300    -1.1390 hn         1 1VY       0.204500
     28 H6           1.8930    -0.5260    -3.1960 h1         1 1VY       0.068700
     29 H7           0.3530    -0.5220    -2.3260 h1         1 1VY       0.068700
     30 H8           1.9970     1.9390    -3.0230 h1         1 1VY       0.034700
     31 H9           0.7150     2.8930    -1.6450 ho         1 1VY       0.399000
     32 H10         -0.6520     0.9130    -4.1080 h1         1 1VY       0.019700
     33 H11          0.5540     0.0770    -5.6290 ho         1 1VY       0.394000
     34 H12          0.9930     3.3740    -4.8050 h1         1 1VY       0.022700
     35 H13         -0.6500     4.4730    -3.8120 ho         1 1VY       0.400000
     36 H14         -0.1570     2.2680    -6.7370 h1         1 1VY      -0.001800
     37 H15         -1.6910     2.4260    -5.8700 h1         1 1VY      -0.001800
     38 H16         -1.2200     4.1860    -7.3550 ho         1 1VY       0.397000
     39 H17         -0.3140    -0.8480     0.2650 ho         1 1VY       0.423000
@<TRIPOS>BOND
     1     1     2 1   
     2     1    39 1   
     3     2     3 2   
     4     2    14 1   
     5     3     4 1   
     6     3     5 1   
     7     4    24 1   
     8     4    25 1   
     9     4    26 1   
    10     5     6 2   
    11     6     7 1   
    12     6    13 1   
    13     7     8 2   
    14     7     9 1   
    15     9    10 1   
    16     9    27 1   
    17    10    11 2   
    18    10    12 1   
    19    12    13 2   
    20    13    14 1   
    21    14    15 1   
    22    15    16 1   
    23    15    28 1   
    24    15    29 1   
    25    16    17 1   
    26    16    18 1   
    27    16    30 1   
    28    17    31 1   
    29    18    19 1   
    30    18    20 1   
    31    18    32 1   
    32    19    33 1   
    33    20    21 1   
    34    20    22 1   
    35    20    34 1   
    36    21    35 1   
    37    22    23 1   
    38    22    36 1   
    39    22    37 1   
    40    23    38 1   
@<TRIPOS>SUBSTRUCTURE
     1 1VY         1 TEMP              0 ****  ****    0 ROOT
