@<TRIPOS>MOLECULE
1VZ
   57    60     1     0     0
SMALL
bcc


@<TRIPOS>ATOM
      1 CAN          0.7030     0.5540     0.0350 c3         1 1VZ       0.160300
      2 CAG          1.1090    -0.9270     0.0830 c3         1 1VZ      -0.095400
      3 CAH          0.9580    -1.3590     1.5350 c3         1 1VZ      -0.095400
      4 CAO          0.4490    -0.1240     2.2960 c3         1 1VZ       0.160300
      5 NAX          0.2660     0.9880     1.3630 n3         1 1VZ      -0.724600
      6 CAU         -1.0420     1.6320     1.3850 c3         1 1VZ       0.182500
      7 CAK         -2.2530     0.7490     1.0430 c3         1 1VZ      -0.094900
      8 CAR         -3.5320     1.5830     1.0090 c3         1 1VZ       0.188300
      9 CAJ         -1.3220     2.3140     2.7330 c3         1 1VZ      -0.094900
     10 CAQ         -2.6210     3.1140     2.6600 c3         1 1VZ       0.188300
     11 NAW         -3.7620     2.3090     2.2470 nh         1 1VZ      -0.638000
     12 CAT         -5.0250     2.9430     2.3750 ca         1 1VZ       0.133600
     13 CAD         -5.9370     3.0560     1.3040 ca         1 1VZ      -0.166000
     14 CAB         -7.2000     3.6070     1.4980 ca         1 1VZ      -0.107500
     15 CAC         -5.4360     3.4170     3.6440 ca         1 1VZ      -0.166000
     16 CAA         -6.6970     3.9710     3.8200 ca         1 1VZ      -0.107500
     17 CAS         -7.5970     4.0760     2.7520 ca         1 1VZ      -0.108300
     18 CAI         -8.9560     4.6420     2.9620 c3         1 1VZ      -0.035100
     19 CAP         -8.9370     6.1230     3.3590 c3         1 1VZ       0.170800
     20 NAV         -9.1750     7.0450     2.2600 n3         1 1VZ      -0.720600
     21 CAL         -8.1760     7.0050     1.1910 c3         1 1VZ       0.153800
     22 CAE         -7.4820     8.3720     1.0740 c3         1 1VZ      -0.097400
     23 CAF         -8.2330     9.3020     2.0170 c3         1 1VZ      -0.097400
     24 CAM         -9.3050     8.4380     2.7010 c3         1 1VZ       0.153800
     25 H1           1.5910     1.1900    -0.2350 h1         1 1VZ       0.044200
     26 H2          -0.0830     0.7170    -0.7510 h1         1 1VZ       0.044200
     27 H3           2.1630    -1.0530    -0.2680 hc         1 1VZ       0.046450
     28 H4           0.4530    -1.5350    -0.5870 hc         1 1VZ       0.046450
     29 H5           1.9340    -1.7000     1.9580 hc         1 1VZ       0.046450
     30 H6           0.2320    -2.2040     1.6290 hc         1 1VZ       0.046450
     31 H7           1.2150     0.2080     3.0500 h1         1 1VZ       0.044200
     32 H8          -0.4930    -0.3730     2.8560 h1         1 1VZ       0.044200
     33 H10         -0.9870     2.4480     0.5990 h1         1 1VZ       0.053700
     34 H11         -2.3550    -0.0730     1.7970 hc         1 1VZ       0.053950
     35 H12         -2.1200     0.2770     0.0360 hc         1 1VZ       0.053950
     36 H13         -4.4070     0.8900     0.8470 h1         1 1VZ       0.036950
     37 H14         -3.4750     2.2840     0.1240 h1         1 1VZ       0.036950
     38 H15         -0.4910     3.0210     2.9890 hc         1 1VZ       0.053950
     39 H16         -1.3870     1.5480     3.5470 hc         1 1VZ       0.053950
     40 H17         -2.8360     3.5370     3.6820 h1         1 1VZ       0.036950
     41 H18         -2.4670     3.9840     1.9550 h1         1 1VZ       0.036950
     42 H19         -5.6680     2.7080     0.2950 ha         1 1VZ       0.134000
     43 H20         -7.8920     3.6780     0.6450 ha         1 1VZ       0.131000
     44 H21         -4.7640     3.3350     4.5130 ha         1 1VZ       0.134000
     45 H22         -6.9970     4.3270     4.8180 ha         1 1VZ       0.131000
     46 H23         -9.4500     4.0760     3.7990 hc         1 1VZ       0.057200
     47 H24         -9.5850     4.4890     2.0460 hc         1 1VZ       0.057200
     48 H25         -9.7760     6.2900     4.0960 h1         1 1VZ       0.031200
     49 H26         -7.9680     6.3400     3.8980 h1         1 1VZ       0.031200
     50 H28         -7.4210     6.1880     1.3530 h1         1 1VZ       0.046950
     51 H29         -8.7300     6.7760     0.2390 h1         1 1VZ       0.046950
     52 H30         -7.5240     8.7410     0.0210 hc         1 1VZ       0.045450
     53 H31         -6.4060     8.2910     1.3630 hc         1 1VZ       0.045450
     54 H32         -7.5440     9.7470     2.7760 hc         1 1VZ       0.045450
     55 H33         -8.7110    10.1430     1.4580 hc         1 1VZ       0.045450
     56 H34        -10.3310     8.7790     2.3940 h1         1 1VZ       0.046950
     57 H35         -9.2300     8.5390     3.8170 h1         1 1VZ       0.046950
@<TRIPOS>BOND
     1     1     2 1   
     2     1     5 1   
     3     1    25 1   
     4     1    26 1   
     5     2     3 1   
     6     2    27 1   
     7     2    28 1   
     8     3     4 1   
     9     3    29 1   
    10     3    30 1   
    11     4     5 1   
    12     4    31 1   
    13     4    32 1   
    14     5     6 1   
    15     6     7 1   
    16     6     9 1   
    17     6    33 1   
    18     7     8 1   
    19     7    34 1   
    20     7    35 1   
    21     8    11 1   
    22     8    36 1   
    23     8    37 1   
    24     9    10 1   
    25     9    38 1   
    26     9    39 1   
    27    10    11 1   
    28    10    40 1   
    29    10    41 1   
    30    11    12 1   
    31    12    13 ar  
    32    12    15 ar  
    33    13    14 ar  
    34    13    42 1   
    35    14    17 ar  
    36    14    43 1   
    37    15    16 ar  
    38    15    44 1   
    39    16    17 ar  
    40    16    45 1   
    41    17    18 1   
    42    18    19 1   
    43    18    46 1   
    44    18    47 1   
    45    19    20 1   
    46    19    48 1   
    47    19    49 1   
    48    20    21 1   
    49    20    24 1   
    50    21    22 1   
    51    21    50 1   
    52    21    51 1   
    53    22    23 1   
    54    22    52 1   
    55    22    53 1   
    56    23    24 1   
    57    23    54 1   
    58    23    55 1   
    59    24    56 1   
    60    24    57 1   
@<TRIPOS>SUBSTRUCTURE
     1 1VZ         1 TEMP              0 ****  ****    0 ROOT
