@<TRIPOS>MOLECULE
molecule
   57    60     1     0     0
SMALL
bcc


@<TRIPOS>ATOM
      1 CAN          0.0000     0.0000     0.0000 c3         1 1VZ       0.144300
      2 CAG          1.5400     0.0000     0.0000 c3         1 1VZ      -0.088400
      3 CAH          1.9440     0.0000     1.4920 c3         1 1VZ      -0.088400
      4 CAO          0.6820    -0.5650     2.1920 c3         1 1VZ       0.144300
      5 NAX         -0.4340     0.0300     1.4130 n3         1 1VZ      -0.700600
      6 CAU         -1.6740    -0.7360     1.6010 c3         1 1VZ       0.161500
      7 CAK         -2.0690    -0.7150     3.0800 c3         1 1VZ      -0.076900
      8 CAR         -3.3920    -1.4630     3.2590 c3         1 1VZ       0.165300
      9 CAJ         -2.7940    -0.1060     0.7700 c3         1 1VZ      -0.076900
     10 CAQ         -4.0960    -0.8710     1.0160 c3         1 1VZ       0.165300
     11 NAW         -4.4340    -0.8210     2.4460 nh         1 1VZ      -0.593000
     12 CAT         -5.6830    -1.3970     2.6860 ca         1 1VZ       0.103600
     13 CAD         -6.1880    -1.4490     3.9800 ca         1 1VZ      -0.166500
     14 CAB         -7.4240    -2.0180     4.2140 ca         1 1VZ      -0.101000
     15 CAC         -6.4260    -1.9120     1.6320 ca         1 1VZ      -0.166500
     16 CAA         -7.6610    -2.4810     1.8740 ca         1 1VZ      -0.101000
     17 CAS         -8.1580    -2.5370     3.1630 ca         1 1VZ      -0.113300
     18 CAI         -9.5060    -3.1580     3.4240 c3         1 1VZ      -0.030100
     19 CAP         -9.3350    -4.6540     3.6970 c3         1 1VZ       0.156800
     20 NAV        -10.6490    -5.2590     3.9510 n3         1 1VZ      -0.707600
     21 CAL        -10.5070    -6.6430     4.4520 c3         1 1VZ       0.144300
     22 CAE        -11.6950    -7.4490     3.8950 c3         1 1VZ      -0.088400
     23 CAF        -12.4930    -6.4470     3.0290 c3         1 1VZ      -0.088400
     24 CAM        -11.4390    -5.3610     2.6970 c3         1 1VZ       0.144300
     25 H1          -0.3680    -0.8990    -0.4790 h1         1 1VZ       0.041200
     26 H2          -0.3680     0.8780    -0.5170 h1         1 1VZ       0.041200
     27 H3           1.9140     0.8910    -0.4890 hc         1 1VZ       0.048950
     28 H4           1.9140    -0.8910    -0.4890 hc         1 1VZ       0.048950
     29 H5           2.7950    -0.6490     1.6570 hc         1 1VZ       0.048950
     30 H6           2.1490     1.0080     1.8310 hc         1 1VZ       0.048950
     31 H7           0.6610    -1.6460     2.1230 h1         1 1VZ       0.041200
     32 H8           0.6420    -0.2400     3.2250 h1         1 1VZ       0.041200
     33 H10         -1.5230    -1.7600     1.2830 h1         1 1VZ       0.021700
     34 H11         -2.1880     0.3100     3.4070 hc         1 1VZ       0.058950
     35 H12         -1.2980    -1.2010     3.6660 hc         1 1VZ       0.058950
     36 H13         -3.2700    -2.4910     2.9400 h1         1 1VZ       0.042200
     37 H14         -3.6830    -1.4360     4.3020 h1         1 1VZ       0.042200
     38 H15         -2.9230     0.9290     1.0640 hc         1 1VZ       0.058950
     39 H16         -2.5380    -0.1600    -0.2810 hc         1 1VZ       0.058950
     40 H17         -3.9690    -1.9040     0.7130 h1         1 1VZ       0.042200
     41 H18         -4.8950    -0.4170     0.4420 h1         1 1VZ       0.042200
     42 H19         -5.6130    -1.0420     4.8030 ha         1 1VZ       0.136000
     43 H20         -7.8170    -2.0610     5.2220 ha         1 1VZ       0.130500
     44 H21         -6.0370    -1.8690     0.6220 ha         1 1VZ       0.136000
     45 H22         -8.2410    -2.8870     1.0530 ha         1 1VZ       0.130500
     46 H23         -9.9620    -2.6830     4.2840 hc         1 1VZ       0.054700
     47 H24        -10.1410    -3.0200     2.5560 hc         1 1VZ       0.054700
     48 H25         -8.8790    -5.1280     2.8370 h1         1 1VZ       0.036700
     49 H26         -8.7000    -4.7920     4.5640 h1         1 1VZ       0.036700
     50 H28         -9.5750    -7.0690     4.0980 h1         1 1VZ       0.040700
     51 H29        -10.5340    -6.6470     5.5350 h1         1 1VZ       0.040700
     52 H30        -11.3380    -8.2700     3.2850 hc         1 1VZ       0.048450
     53 H31        -12.3120    -7.8160     4.7070 hc         1 1VZ       0.048450
     54 H32        -12.8480    -6.9230     2.1230 hc         1 1VZ       0.048450
     55 H33        -13.3140    -6.0220     3.5940 hc         1 1VZ       0.048450
     56 H34        -11.9220    -4.4170     2.4740 h1         1 1VZ       0.040700
     57 H35        -10.8090    -5.6800     1.8750 h1         1 1VZ       0.040700
@<TRIPOS>BOND
     1    19    18 1   
     2    19    20 1   
     3    24    20 1   
     4    24    23 1   
     5    18    17 1   
     6    20    21 1   
     7    23    22 1   
     8    17    16 ar  
     9    17    14 ar  
    10    16    15 ar  
    11    21    22 1   
    12    14    13 ar  
    13    15    12 ar  
    14    13    12 ar  
    15    12    11 1   
    16    11    10 1   
    17    11     8 1   
    18    10     9 1   
    19     8     7 1   
    20     9     6 1   
    21     7     6 1   
    22     6     5 1   
    23     5     4 1   
    24     5     1 1   
    25     4     3 1   
    26     1     2 1   
    27     3     2 1   
    28     1    25 1   
    29     1    26 1   
    30     2    27 1   
    31     2    28 1   
    32     3    29 1   
    33     3    30 1   
    34     4    31 1   
    35     4    32 1   
    36     6    33 1   
    37     7    34 1   
    38     7    35 1   
    39     8    36 1   
    40     8    37 1   
    41     9    38 1   
    42     9    39 1   
    43    10    40 1   
    44    10    41 1   
    45    13    42 1   
    46    14    43 1   
    47    15    44 1   
    48    16    45 1   
    49    18    46 1   
    50    18    47 1   
    51    19    48 1   
    52    19    49 1   
    53    21    50 1   
    54    21    51 1   
    55    22    52 1   
    56    22    53 1   
    57    23    54 1   
    58    23    55 1   
    59    24    56 1   
    60    24    57 1   
@<TRIPOS>SUBSTRUCTURE
     1 1VZ         1 TEMP              0 ****  ****    0 ROOT
