@<TRIPOS>MOLECULE
1W0
   39    42     1     0     0
SMALL
bcc


@<TRIPOS>ATOM
      1 C4           0.0320     0.1090    -0.0030 ca         1 1W0      -0.125000
      2 C5           1.4160    -0.1110     0.0090 ca         1 1W0      -0.112300
      3 C6           2.0440    -0.4530     1.2100 ca         1 1W0      -0.094000
      4 C7           2.1820     0.0150    -1.2870 c3         1 1W0       0.176500
      5 C8           3.6980     0.0560    -1.0560 c3         1 1W0      -0.107400
      6 C17         -2.1550     0.2520     1.1440 cp         1 1W0      -0.290600
      7 C20         -4.8250     0.6940     1.0760 ca         1 1W0       0.646900
      8 C22         -2.8250     0.9470     2.1820 ca         1 1W0       0.441700
      9 C1           1.2980    -0.5430     2.3860 ca         1 1W0      -0.114000
     10 C2          -0.0730    -0.3080     2.3760 ca         1 1W0      -0.090000
     11 C3          -0.7210     0.0170     1.1740 cp         1 1W0      -0.011000
     12 C9           4.5040     0.3570    -2.3060 c3         1 1W0       0.111400
     13 O10          3.8200     1.1800    -3.2500 os         1 1W0      -0.414600
     14 C11          2.9120     2.0870    -2.6490 c3         1 1W0       0.108400
     15 C12          1.7290     1.3260    -2.0640 c3         1 1W0       0.087100
     16 O13          0.9260     0.8190    -3.1870 os         1 1W0      -0.435400
     17 C14          1.1450    -0.5660    -3.1980 c2         1 1W0       0.604500
     18 N15          1.8100    -1.1010    -2.2100 n2         1 1W0      -0.502900
     19 N16          0.5860    -1.2180    -4.3810 nz         1 1W0      -0.767600
     20 C18         -2.9620    -0.2020     0.0760 ca         1 1W0       0.441700
     21 N19         -4.2900     0.0130     0.0250 nb         1 1W0      -0.680500
     22 N21         -4.1510     1.1720     2.1580 nb         1 1W0      -0.680500
     23 H1          -0.4770     0.3680    -0.9450 ha         1 1W0       0.124000
     24 H2           3.1250    -0.6580     1.2550 ha         1 1W0       0.146000
     25 H3           4.0480    -0.9240    -0.6350 hc         1 1W0       0.088200
     26 H4           3.8890     0.8510    -0.2860 hc         1 1W0       0.088200
     27 H5          -5.9210     0.8760     1.0490 h5         1 1W0       0.071100
     28 H6          -2.2740     1.3390     3.0570 h4         1 1W0       0.025600
     29 H7           1.8020    -0.8070     3.3300 ha         1 1W0       0.157000
     30 H8          -0.6550    -0.3870     3.3090 ha         1 1W0       0.156000
     31 H9           4.7420    -0.5780    -2.8820 h1         1 1W0       0.071200
     32 H10          5.4630     0.8710    -2.0230 h1         1 1W0       0.071200
     33 H11          3.4060     2.6910    -1.8440 h1         1 1W0       0.090700
     34 H12          2.5800     2.7540    -3.4910 h1         1 1W0       0.090700
     35 H13          1.0390     1.9790    -1.4740 h1         1 1W0       0.129700
     36 H14          1.1770    -0.9760    -5.1910 hn         1 1W0       0.490800
     37 H15         -0.3660    -0.8580    -4.5340 hn         1 1W0       0.490800
     38 H16         -2.5270    -0.7710    -0.7640 h4         1 1W0       0.025600
     39 H163         0.5660    -2.2380    -4.2510 hn         1 1W0       0.490800
@<TRIPOS>BOND
     1     1     2 ar  
     2     1    11 ar  
     3     1    23 1   
     4     2     3 ar  
     5     2     4 1   
     6     3     9 ar  
     7     3    24 1   
     8     4     5 1   
     9     4    15 1   
    10     4    18 1   
    11     5    12 1   
    12     5    25 1   
    13     5    26 1   
    14     6     8 ar  
    15     6    11 1   
    16     6    20 ar  
    17     7    21 ar  
    18     7    22 ar  
    19     7    27 1   
    20     8    22 ar  
    21     8    28 1   
    22     9    10 ar  
    23     9    29 1   
    24    10    11 ar  
    25    10    30 1   
    26    12    13 1   
    27    12    31 1   
    28    12    32 1   
    29    13    14 1   
    30    14    15 1   
    31    14    33 1   
    32    14    34 1   
    33    15    16 1   
    34    15    35 1   
    35    16    17 1   
    36    17    18 2   
    37    17    19 1   
    38    19    36 1   
    39    19    37 1   
    40    19    39 1   
    41    20    21 ar  
    42    20    38 1   
@<TRIPOS>SUBSTRUCTURE
     1 1W0         1 TEMP              0 ****  ****    0 ROOT
