@<TRIPOS>MOLECULE
molecule
   39    42     1     0     0
SMALL
bcc


@<TRIPOS>ATOM
      1 C4           0.0000     0.0000     0.0000 ca         1 1W0      -0.117000
      2 C5           1.3800     0.0000     0.0000 ca         1 1W0      -0.114300
      3 C6           2.0740     0.0000     1.1970 ca         1 1W0      -0.123000
      4 C7           2.1330    -0.0010    -1.3050 c3         1 1W0       0.168500
      5 C8           1.9750     1.3450    -1.9650 c3         1 1W0      -0.099400
      6 C17         -2.1780     0.0050     1.2140 cp         1 1W0      -0.316600
      7 C20         -4.8560     0.0050     1.2230 ca         1 1W0       0.698900
      8 C22         -2.8920     0.0110     2.4150 ca         1 1W0       0.474700
      9 C1           1.3890    -0.0010     2.3990 ca         1 1W0      -0.107000
     10 C2           0.0090    -0.0000     2.4110 ca         1 1W0      -0.100000
     11 C3          -0.6950     0.0060     1.2080 cp         1 1W0       0.001000
     12 C9           2.3260     1.3040    -3.4490 c3         1 1W0       0.124400
     13 O10          1.5340     0.2860    -4.0710 os         1 1W0      -0.379600
     14 C11          1.8620    -1.0240    -3.6270 c3         1 1W0       0.118400
     15 C12          1.6810    -1.1980    -2.1400 c3         1 1W0       0.100100
     16 O13          2.6130    -2.2100    -1.6820 os         1 1W0      -0.415400
     17 C14          3.7320    -1.5700    -1.2830 c2         1 1W0       0.588500
     18 N15          3.5460    -0.3240    -1.0450 n2         1 1W0      -0.555900
     19 N16          4.9470    -2.1950    -1.1430 nz         1 1W0      -0.717600
     20 C18         -2.9010    -0.0060     0.0170 ca         1 1W0       0.474700
     21 N19         -4.2210    -0.0060     0.0680 nb         1 1W0      -0.723500
     22 N21         -4.2130     0.0090     2.3750 nb         1 1W0      -0.723500
     23 H1          -0.5420     0.0000    -0.9380 ha         1 1W0       0.140000
     24 H2           3.1570    -0.0000     1.1930 ha         1 1W0       0.129000
     25 H3           0.9470     1.6690    -1.8580 hc         1 1W0       0.091200
     26 H4           2.6260     2.0560    -1.4710 hc         1 1W0       0.091200
     27 H5          -5.9400     0.0040     1.2270 h5         1 1W0       0.074100
     28 H6          -2.3700     0.0150     3.3650 h4         1 1W0       0.030100
     29 H7           1.9370    -0.0030     3.3340 ha         1 1W0       0.148000
     30 H8          -0.5250     0.0020     3.3530 ha         1 1W0       0.151000
     31 H9           2.1060     2.2630    -3.9020 h1         1 1W0       0.068200
     32 H10          3.3770     1.0700    -3.5680 h1         1 1W0       0.068200
     33 H11          1.2250    -1.7350    -4.1400 h1         1 1W0       0.064200
     34 H12          2.8960    -1.2280    -3.8780 h1         1 1W0       0.064200
     35 H13          0.6620    -1.4750    -1.9000 h1         1 1W0       0.141700
     36 H14          5.6140    -1.5480    -0.7700 hn         1 1W0       0.484800
     37 H15          5.2600    -2.5190    -2.0360 hn         1 1W0       0.484800
     38 H16         -2.3870    -0.0120    -0.9360 h4         1 1W0       0.030100
     39 H163         4.8420    -3.0010    -0.5590 hn         1 1W0       0.484800
@<TRIPOS>BOND
     1    21    20 ar
     2    21     7 ar
     3    20     6 ar
     4     7    22 ar
     5    19    17 1
     6     6    11 1
     7     6     8 ar
     8    18    17 2
     9    18     4 1
    10    22     8 ar
    11    17    16 1
    12    11     1 ar
    13    11    10 ar
    14     1     2 ar
    15    10     9 ar
    16     2     4 1
    17     2     3 ar
    18     4     5 1
    19     4    15 1
    20     9     3 ar
    21    16    15 1
    22     5    12 1
    23    12    13 1
    24    15    14 1
    25    13    14 1
    26     1    23 1
    27     3    24 1
    28     5    25 1
    29     5    26 1
    30     7    27 1
    31     8    28 1
    32     9    29 1
    33    10    30 1
    34    12    31 1
    35    12    32 1
    36    14    33 1
    37    14    34 1
    38    15    35 1
    39    19    36 1
    40    19    37 1
    41    20    38 1
    42    39    19 1
@<TRIPOS>SUBSTRUCTURE
     1 1W0         1 TEMP              0 ****  ****    0 ROOT
