@<TRIPOS>MOLECULE
1W0
   39    42     1     0     0
SMALL
bcc


@<TRIPOS>ATOM
      1 C4           0.0000     0.0000     0.0000 ca         1 1W0      -0.094000
      2 C5           1.3800     0.0000     0.0000 ca         1 1W0      -0.131300
      3 C6           2.0740     0.0000     1.1970 ca         1 1W0      -0.106000
      4 C7           2.1330    -0.0010    -1.3050 c3         1 1W0       0.161500
      5 C8           1.9750     1.3450    -1.9650 c3         1 1W0      -0.060400
      6 C17         -2.1780     0.0050     1.2140 cp         1 1W0      -0.307600
      7 C20         -4.8560     0.0050     1.2230 ca         1 1W0       0.648900
      8 C22         -2.8920     0.0110     2.4150 ca         1 1W0       0.453700
      9 C1           1.3890    -0.0010     2.3990 ca         1 1W0      -0.072000
     10 C2           0.0090    -0.0000     2.4110 ca         1 1W0      -0.075000
     11 C3          -0.6950     0.0060     1.2080 cp         1 1W0       0.014000
     12 C9           2.3260     1.3040    -3.4490 c3         1 1W0       0.205400
     13 O10          1.5340     0.2860    -4.0710 os         1 1W0      -0.366600
     14 C11          1.8620    -1.0240    -3.6270 c3         1 1W0       0.189400
     15 C12          1.6810    -1.1980    -2.1400 c3         1 1W0       0.134100
     16 O13          2.6130    -2.2100    -1.6820 os         1 1W0      -0.383400
     17 C14          3.7320    -1.5700    -1.2830 c2         1 1W0       0.338500
     18 N15          3.5460    -0.3240    -1.0450 n2         1 1W0      -0.444900
     19 N16          4.9470    -2.1950    -1.1430 nz         1 1W0       0.234400
     20 C18         -2.9010    -0.0060     0.0170 ca         1 1W0       0.453700
     21 N19         -4.2210    -0.0060     0.0680 nb         1 1W0      -0.613000
     22 N21         -4.2130     0.0090     2.3750 nb         1 1W0      -0.613000
     23 H1          -0.5420     0.0000    -0.9380 ha         1 1W0       0.124000
     24 H2           3.1570    -0.0000     1.1930 ha         1 1W0       0.101000
     25 H3           0.9470     1.6690    -1.8580 hc         1 1W0       0.058700
     26 H4           2.6260     2.0560    -1.4710 hc         1 1W0       0.058700
     27 H5          -5.9400     0.0040     1.2270 h5         1 1W0       0.010100
     28 H6          -2.3700     0.0150     3.3650 h4         1 1W0      -0.012400
     29 H7           1.9370    -0.0030     3.3340 ha         1 1W0       0.116000
     30 H8          -0.5250     0.0020     3.3530 ha         1 1W0       0.126000
     31 H9           2.1060     2.2630    -3.9020 h1         1 1W0       0.023700
     32 H10          3.3770     1.0700    -3.5680 h1         1 1W0       0.023700
     33 H11          1.2250    -1.7350    -4.1400 h1         1 1W0       0.022200
     34 H12          2.8960    -1.2280    -3.8780 h1         1 1W0       0.022200
     35 H13          0.6620    -1.4750    -1.9000 h1         1 1W0       0.097700
     36 H14          5.6140    -1.5480    -0.7700 hn         1 1W0       0.224467
     37 H15          5.2600    -2.5190    -2.0360 hn         1 1W0       0.224467
     38 H16         -2.3870    -0.0120    -0.9360 h4         1 1W0      -0.012400
     39 H163         4.8420    -3.0010    -0.5590 hn         1 1W0       0.224467
@<TRIPOS>BOND
     1     1     2 ar  
     2     1    11 ar  
     3     1    23 1   
     4     2     3 ar  
     5     2     4 1   
     6     3     9 ar  
     7     3    24 1   
     8     4     5 1   
     9     4    15 1   
    10     4    18 1   
    11     5    12 1   
    12     5    25 1   
    13     5    26 1   
    14     6     8 ar  
    15     6    11 1   
    16     6    20 ar  
    17     7    21 ar  
    18     7    22 ar  
    19     7    27 1   
    20     8    22 ar  
    21     8    28 1   
    22     9    10 ar  
    23     9    29 1   
    24    10    11 ar  
    25    10    30 1   
    26    12    13 1   
    27    12    31 1   
    28    12    32 1   
    29    13    14 1   
    30    14    15 1   
    31    14    33 1   
    32    14    34 1   
    33    15    16 1   
    34    15    35 1   
    35    16    17 1   
    36    17    18 2   
    37    17    19 1   
    38    19    36 1   
    39    19    37 1   
    40    19    39 1   
    41    20    21 ar  
    42    20    38 1   
@<TRIPOS>SUBSTRUCTURE
     1 1W0         1 TEMP              0 ****  ****    0 ROOT
