@<TRIPOS>MOLECULE
1W1
   42    45     1     0     0
SMALL
bcc


@<TRIPOS>ATOM
      1 C4           0.0000     0.0000     0.0000 ca         1 1W1       0.480200
      2 C6          -0.0540     0.0000     2.3080 ca         1 1W1       0.439200
      3 C8          -1.5250    -1.1910    -1.3330 c3         1 1W1       0.144800
      4 C10         -2.8250     0.0160    -3.1700 c3         1 1W1       0.161500
      5 C17         -4.2880     0.0190    -2.8130 ca         1 1W1      -0.174300
      6 C20         -6.9760     0.0240    -2.1560 ca         1 1W1       0.168900
      7 C21         -6.4720    -0.9560    -2.9930 ca         1 1W1      -0.156000
      8 C22         -5.1270    -0.9590    -3.3210 ca         1 1W1       0.166900
      9 C1           1.3270    -0.0010     2.3890 ca         1 1W1      -0.196300
     10 C2           2.0780     0.0000     1.2270 ca         1 1W1      -0.027000
     11 C3           1.4050     0.0000     0.0000 ca         1 1W1      -0.053300
     12 N5          -0.6700     0.0000     1.1410 nb         1 1W1      -0.614000
     13 N7          -0.6880     0.0060    -1.2020 nh         1 1W1      -0.511300
     14 C9          -2.1560    -1.2600    -2.7060 c3         1 1W1      -0.018400
     15 C11         -2.1270     1.2970    -2.7040 c3         1 1W1       0.170100
     16 C12         -1.5240     1.2060    -1.3230 c3         1 1W1       0.136800
     17 O13         -1.1450     1.4900    -3.7340 os         1 1W1      -0.363400
     18 C14         -1.6720     0.9620    -4.8640 c2         1 1W1       0.332500
     19 N15         -2.6290     0.1140    -4.6410 n2         1 1W1      -0.443900
     20 N16         -1.2320     1.2880    -6.1230 nz         1 1W1       0.225400
     21 C18         -4.7930     0.9930    -1.9730 ca         1 1W1      -0.057000
     22 C19         -6.1350     0.9970    -1.6440 ca         1 1W1      -0.130000
     23 F23         -4.6330    -1.9140    -4.1390 f          1 1W1      -0.115900
     24 F24         -8.2890     0.0270    -1.8340 f          1 1W1      -0.106900
     25 C25          2.1350     0.0000    -1.2310 cg         1 1W1       0.247800
     26 N26          2.7280     0.0130    -2.2010 n1         1 1W1      -0.377800
     27 H1          -0.6930    -0.0080     3.1830 h4         1 1W1      -0.005900
     28 H2          -2.1800    -1.2560    -0.4730 h1         1 1W1       0.041200
     29 H3          -0.8850    -2.0640    -1.3610 h1         1 1W1       0.041200
     30 H4          -7.1240    -1.7350    -3.3690 ha         1 1W1       0.150000
     31 H5           1.8120     0.0290     3.3570 ha         1 1W1       0.131000
     32 H6           3.1590     0.0510     1.2810 ha         1 1W1       0.130000
     33 H7          -1.3770    -1.4250    -3.4410 hc         1 1W1       0.042700
     34 H8          -2.8500    -2.0920    -2.7310 hc         1 1W1       0.042700
     35 H9          -2.8350     2.1170    -2.7300 h1         1 1W1       0.053700
     36 H10         -0.8820     2.0780    -1.3550 h1         1 1W1       0.052700
     37 H11         -2.1710     1.2710    -0.4570 h1         1 1W1       0.052700
     38 H12         -1.6290     2.1650    -6.3980 hn         1 1W1       0.228467
     39 H13         -0.2340     1.3600    -6.1190 hn         1 1W1       0.228467
     40 H14         -4.1300     1.7380    -1.5480 ha         1 1W1       0.119000
     41 H15         -6.5300     1.7640    -0.9900 ha         1 1W1       0.136000
     42 H163        -1.2200     0.4670    -6.6950 hn         1 1W1       0.228467
@<TRIPOS>BOND
     1     1    11 ar  
     2     1    12 ar  
     3     1    13 1   
     4     2     9 ar  
     5     2    12 ar  
     6     2    27 1   
     7     3    13 1   
     8     3    14 1   
     9     3    28 1   
    10     3    29 1   
    11     4     5 1   
    12     4    14 1   
    13     4    15 1   
    14     4    19 1   
    15     5     8 ar  
    16     5    21 ar  
    17     6     7 ar  
    18     6    22 ar  
    19     6    24 1   
    20     7     8 ar  
    21     7    30 1   
    22     8    23 1   
    23     9    10 ar  
    24     9    31 1   
    25    10    11 ar  
    26    10    32 1   
    27    11    25 1   
    28    13    16 1   
    29    14    33 1   
    30    14    34 1   
    31    15    16 1   
    32    15    17 1   
    33    15    35 1   
    34    16    36 1   
    35    16    37 1   
    36    17    18 1   
    37    18    19 2   
    38    18    20 1   
    39    20    38 1   
    40    20    39 1   
    41    20    42 1   
    42    21    22 ar  
    43    21    40 1   
    44    22    41 1   
    45    25    26 3   
@<TRIPOS>SUBSTRUCTURE
     1 1W1         1 TEMP              0 ****  ****    0 ROOT
