@<TRIPOS>MOLECULE
molecule
   42    45     1     0     0
SMALL
bcc


@<TRIPOS>ATOM
      1 C4           0.0000     0.0000     0.0000 ca         1 1W1       0.608200
      2 C6          -0.0540     0.0000     2.3080 ca         1 1W1       0.455200
      3 C8          -1.5250    -1.1910    -1.3330 c3         1 1W1       0.157800
      4 C10         -2.8250     0.0160    -3.1700 c3         1 1W1       0.164500
      5 C17         -4.2880     0.0190    -2.8130 ca         1 1W1      -0.165300
      6 C20         -6.9760     0.0240    -2.1560 ca         1 1W1       0.192900
      7 C21         -6.4720    -0.9560    -2.9930 ca         1 1W1      -0.202000
      8 C22         -5.1270    -0.9590    -3.3210 ca         1 1W1       0.191900
      9 C1           1.3270    -0.0010     2.3890 ca         1 1W1      -0.239300
     10 C2           2.0780     0.0000     1.2270 ca         1 1W1      -0.048000
     11 C3           1.4050     0.0000     0.0000 ca         1 1W1      -0.104300
     12 N5          -0.6700     0.0000     1.1410 nb         1 1W1      -0.735000
     13 N7          -0.6880     0.0060    -1.2020 nh         1 1W1      -0.711300
     14 C9          -2.1560    -1.2600    -2.7060 c3         1 1W1      -0.062400
     15 C11         -2.1270     1.2970    -2.7040 c3         1 1W1       0.138100
     16 C12         -1.5240     1.2060    -1.3230 c3         1 1W1       0.158800
     17 O13         -1.1450     1.4900    -3.7340 os         1 1W1      -0.397400
     18 C14         -1.6720     0.9620    -4.8640 c2         1 1W1       0.574500
     19 N15         -2.6290     0.1140    -4.6410 n2         1 1W1      -0.537900
     20 N16         -1.2320     1.2880    -6.1230 nz         1 1W1      -0.724600
     21 C18         -4.7930     0.9930    -1.9730 ca         1 1W1      -0.077000
     22 C19         -6.1350     0.9970    -1.6440 ca         1 1W1      -0.172000
     23 F23         -4.6330    -1.9140    -4.1390 f          1 1W1      -0.121900
     24 F24         -8.2890     0.0270    -1.8340 f          1 1W1      -0.110900
     25 C25          2.1350     0.0000    -1.2310 cg         1 1W1       0.258800
     26 N26          2.7280     0.0130    -2.2010 n1         1 1W1      -0.362800
     27 H1          -0.6930    -0.0080     3.1830 h4         1 1W1       0.041100
     28 H2          -2.1800    -1.2560    -0.4730 h1         1 1W1       0.073700
     29 H3          -0.8850    -2.0640    -1.3610 h1         1 1W1       0.073700
     30 H4          -7.1240    -1.7350    -3.3690 ha         1 1W1       0.179000
     31 H5           1.8120     0.0290     3.3570 ha         1 1W1       0.162000
     32 H6           3.1590     0.0510     1.2810 ha         1 1W1       0.164000
     33 H7          -1.3770    -1.4250    -3.4410 hc         1 1W1       0.074700
     34 H8          -2.8500    -2.0920    -2.7310 hc         1 1W1       0.074700
     35 H9          -2.8350     2.1170    -2.7300 h1         1 1W1       0.085700
     36 H10         -0.8820     2.0780    -1.3550 h1         1 1W1       0.087200
     37 H11         -2.1710     1.2710    -0.4570 h1         1 1W1       0.087200
     38 H12         -1.6290     2.1650    -6.3980 hn         1 1W1       0.487800
     39 H13         -0.2340     1.3600    -6.1190 hn         1 1W1       0.487800
     40 H14         -4.1300     1.7380    -1.5480 ha         1 1W1       0.142000
     41 H15         -6.5300     1.7640    -0.9900 ha         1 1W1       0.167000
     42 H163        -1.2200     0.4670    -6.6950 hn         1 1W1       0.487800
@<TRIPOS>BOND
     1    20    18 1   
     2    19    18 2   
     3    19     4 1   
     4    22    21 ar  
     5    22     6 ar  
     6    21     5 ar  
     7    18    17 1   
     8    24     6 1   
     9    26    25 3   
    10     6     7 ar  
    11     4     5 1   
    12     4    14 1   
    13     4    15 1   
    14     5     8 ar  
    15    17    15 1   
    16    14     3 1   
    17     3    13 1   
    18    25    11 1   
    19    15    16 1   
    20     7     8 ar  
    21     8    23 1   
    22    13    16 1   
    23    13     1 1   
    24    11     1 ar  
    25    11    10 ar  
    26     1    12 ar  
    27    10     9 ar  
    28    12     2 ar  
    29     9     2 ar  
    30     2    27 1   
    31     3    28 1   
    32     3    29 1   
    33     7    30 1   
    34     9    31 1   
    35    10    32 1   
    36    14    33 1   
    37    14    34 1   
    38    15    35 1   
    39    16    36 1   
    40    16    37 1   
    41    20    38 1   
    42    20    39 1   
    43    21    40 1   
    44    22    41 1   
    45    42    20 1   
@<TRIPOS>SUBSTRUCTURE
     1 1W1         1 TEMP              0 ****  ****    0 ROOT
