@<TRIPOS>MOLECULE
1W1
   42    45     1     0     0
SMALL
bcc


@<TRIPOS>ATOM
      1 C4           0.0240    -0.1050     0.0280 ca         1 1W1       0.627200
      2 C6           0.8580    -0.5930     2.1360 ca         1 1W1       0.451200
      3 C8          -0.8230    -1.6190    -1.6840 c3         1 1W1       0.161800
      4 C10         -2.8180    -0.8210    -3.0970 c3         1 1W1       0.183500
      5 C17         -4.1260    -1.3250    -3.6630 ca         1 1W1      -0.167300
      6 C20         -6.5620    -2.3140    -4.6930 ca         1 1W1       0.184900
      7 C21         -6.4030    -2.1760    -3.3050 ca         1 1W1      -0.196000
      8 C22         -5.1860    -1.6910    -2.7980 ca         1 1W1       0.157900
      9 C1           1.8860     0.3650     2.0260 ca         1 1W1      -0.238300
     10 C2           1.9680     1.1210     0.8600 ca         1 1W1      -0.036000
     11 C3           1.0300     0.8960    -0.1580 ca         1 1W1      -0.150300
     12 N5          -0.0520    -0.8320     1.1770 nb         1 1W1      -0.682000
     13 N7          -0.9050    -0.3010    -1.0590 nh         1 1W1      -0.759300
     14 C9          -2.0870    -2.0080    -2.4440 c3         1 1W1      -0.077400
     15 C11         -3.0620     0.3300    -2.0290 c3         1 1W1       0.123100
     16 C12         -2.2690     0.1000    -0.7390 c3         1 1W1       0.155800
     17 O13         -2.5480     1.5440    -2.6710 os         1 1W1      -0.429400
     18 C14         -1.8610     1.0950    -3.8060 c2         1 1W1       0.636500
     19 N15         -1.9600    -0.1670    -4.1280 n2         1 1W1      -0.532900
     20 N16         -1.0900     2.1470    -4.4630 nz         1 1W1      -0.786600
     21 C18         -4.3110    -1.5000    -5.0400 ca         1 1W1      -0.062000
     22 C19         -5.5060    -1.9800    -5.5610 ca         1 1W1      -0.176000
     23 F23         -5.0530    -1.5910    -1.4520 f          1 1W1      -0.136900
     24 F24         -7.7290    -2.7750    -5.1920 f          1 1W1      -0.109900
     25 C25          1.0300     1.6350    -1.3670 cg         1 1W1       0.377800
     26 N26          0.9440     2.1960    -2.3820 n1         1 1W1      -0.508800
     27 H1           0.7540    -1.2110     3.0500 h4         1 1W1       0.050100
     28 H2          -0.6080    -2.4400    -0.9400 h1         1 1W1       0.067700
     29 H3           0.0500    -1.5700    -2.3960 h1         1 1W1       0.067700
     30 H4          -7.2180    -2.4510    -2.6180 ha         1 1W1       0.183000
     31 H5           2.6030     0.5080     2.8480 ha         1 1W1       0.173000
     32 H6           2.7540     1.8830     0.7340 ha         1 1W1       0.165000
     33 H7          -2.8160    -2.4940    -1.7400 hc         1 1W1       0.087700
     34 H8          -1.8150    -2.7610    -3.2300 hc         1 1W1       0.087700
     35 H9          -4.1420     0.5400    -1.8270 h1         1 1W1       0.127700
     36 H10         -2.2420     1.0620    -0.1540 h1         1 1W1       0.084200
     37 H11         -2.8270    -0.6710    -0.1300 h1         1 1W1       0.084200
     38 H12         -0.2280     2.3280    -3.8930 hn         1 1W1       0.496467
     39 H13         -0.8280     1.8570    -5.4120 hn         1 1W1       0.496467
     40 H14         -3.4970    -1.2760    -5.7490 ha         1 1W1       0.154000
     41 H15         -5.6330    -2.1100    -6.6470 ha         1 1W1       0.170000
     42 H163        -1.6620     2.9990    -4.4920 hn         1 1W1       0.496467
@<TRIPOS>BOND
     1     1    11 ar  
     2     1    12 ar  
     3     1    13 1   
     4     2     9 ar  
     5     2    12 ar  
     6     2    27 1   
     7     3    13 1   
     8     3    14 1   
     9     3    28 1   
    10     3    29 1   
    11     4     5 1   
    12     4    14 1   
    13     4    15 1   
    14     4    19 1   
    15     5     8 ar  
    16     5    21 ar  
    17     6     7 ar  
    18     6    22 ar  
    19     6    24 1   
    20     7     8 ar  
    21     7    30 1   
    22     8    23 1   
    23     9    10 ar  
    24     9    31 1   
    25    10    11 ar  
    26    10    32 1   
    27    11    25 1   
    28    13    16 1   
    29    14    33 1   
    30    14    34 1   
    31    15    16 1   
    32    15    17 1   
    33    15    35 1   
    34    16    36 1   
    35    16    37 1   
    36    17    18 1   
    37    18    19 2   
    38    18    20 1   
    39    20    38 1   
    40    20    39 1   
    41    20    42 1   
    42    21    22 ar  
    43    21    40 1   
    44    22    41 1   
    45    25    26 3   
@<TRIPOS>SUBSTRUCTURE
     1 1W1         1 TEMP              0 ****  ****    0 ROOT
