@<TRIPOS>MOLECULE
1W2
   42    46     1     0     0
SMALL
bcc


@<TRIPOS>ATOM
      1 C4           0.0000     0.0000     0.0000 c2         1 1W2      -0.058000
      2 C6          -0.0520    -0.0040     2.3080 c2         1 1W2      -0.052000
      3 C8          -1.4560    -1.2320    -1.3720 c3         1 1W2      -0.114000
      4 C10         -2.9370    -0.0830    -3.0200 c3         1 1W2       0.423000
      5 C17         -1.6410     1.9670    -3.6870 ca         1 1W2      -0.284000
      6 C20         -0.3080     3.2550    -5.7420 ca         1 1W2       0.132000
      7 C21          0.2120     2.0910    -5.2020 ca         1 1W2      -0.147000
      8 C22         -0.4550     1.4470    -4.1750 ca         1 1W2       0.105000
      9 C1           1.3280    -0.0100     2.3890 c2         1 1W2      -0.135000
     10 C2           2.0790     0.0000     1.2270 c2         1 1W2      -0.020000
     11 C3           1.4050     0.0000     0.0000 c2         1 1W2       0.032000
     12 N5          -0.6700     0.0010     1.1420 n2         1 1W2      -0.025000
     13 N7          -0.6880     0.0050    -1.2010 nh         1 1W2       0.091000
     14 C9          -2.0060    -1.2500    -2.7990 c3         1 1W2      -0.038000
     15 C11         -2.3690     1.2670    -2.5680 DU         1 1W2       0.264000
     16 C12         -1.5080     1.1930    -1.3260 c3         1 1W2      -0.208000
     17 N13         -3.6190     1.9850    -2.2050 n2         1 1W2      -0.055000
     18 C14         -4.5580     1.1000    -2.0480 c2         1 1W2      -0.176000
     19 O15         -4.1380    -0.1730    -2.2370 os         1 1W2      -0.176000
     20 N16         -5.8470     1.4230    -1.7020 nz         1 1W2       0.820000
     21 C18         -2.1580     3.1320    -4.2230 ca         1 1W2       0.013000
     22 C19         -1.4930     3.7750    -5.2500 ca         1 1W2      -0.140000
     23 F23          0.0520     0.3110    -3.6460 f          1 1W2      -0.083000
     24 F24          0.3420     3.8840    -6.7450 f          1 1W2      -0.069000
     25 C25          2.1360    -0.0020    -1.2320 c1         1 1W2      -0.121000
     26 N26          2.7230     0.0140    -2.2040 n1         1 1W2      -0.005000
     27 H1          -0.5300     0.0400     3.2790 h4         1 1W2       0.131000
     28 H2          -1.9310    -1.1580    -2.3420 h1         1 1W2       0.067000
     29 H3          -0.6940    -1.9860    -1.5320 h1         1 1W2       0.067000
     30 H4          -3.1980    -0.0270    -4.0700 h1         1 1W2       0.052000
     31 H5           1.0900     1.5270    -5.4940 ha         1 1W2       0.156000
     32 H6           1.6670     0.0600     3.4150 ha         1 1W2       0.133000
     33 H7           3.1600     0.0020     1.3050 ha         1 1W2       0.132000
     34 H8          -2.4050    -2.0080    -3.4630 hc         1 1W2      -0.124500
     35 H9          -2.6160    -0.3880    -3.0420 hc         1 1W2      -0.124500
     36 H10         -0.6950     1.8980    -1.4520 h1         1 1W2       0.077000
     37 H11         -1.7700     1.0990    -2.3730 DU         1 1W2       0.008000
     38 H12         -6.5490     1.2640    -1.0070 hn         1 1W2       0.062000
     39 H13         -5.7890     2.4200    -1.6500 hn         1 1W2       0.062000
     40 H14         -3.0720     3.5020    -3.7730 ha         1 1W2       0.121000
     41 H15         -1.7060     4.5740    -5.9490 ha         1 1W2       0.145000
     42 H163        -6.3360     0.5760    -1.9160 hn         1 1W2       0.062000
@<TRIPOS>BOND
     1     1    11 1   
     2     1    12 1   
     3     1    13 1   
     4     2     9 1   
     5     2    12 1   
     6     2    27 1   
     7     3    13 1   
     8     3    14 1   
     9     3    28 1   
    10     3    29 1   
    11     4    14 1   
    12     4    15 1   
    13     4    19 1   
    14     4    30 1   
    15     5     8 1   
    16     5    15 1   
    17     5    21 1   
    18     6     7 1   
    19     6    22 1   
    20     6    24 1   
    21     7     8 1   
    22     7    31 1   
    23     8    23 1   
    24     9    10 1   
    25     9    32 1   
    26    10    11 1   
    27    10    33 1   
    28    11    25 1   
    29    13    16 1   
    30    14    34 1   
    31    14    35 1   
    32    15    16 1   
    33    15    17 1   
    34    15    37 1   
    35    16    36 1   
    36    16    37 1   
    37    17    18 1   
    38    18    19 1   
    39    18    20 1   
    40    20    38 1   
    41    20    39 1   
    42    20    42 1   
    43    21    22 1   
    44    21    40 1   
    45    22    41 1   
    46    25    26 1   
@<TRIPOS>SUBSTRUCTURE
     1 1W2         1 TEMP              0 ****  ****    0 ROOT
