@<TRIPOS>MOLECULE
1W2
   42    45     1     0     0
SMALL
bcc


@<TRIPOS>ATOM
      1 C4          -0.0920     0.1630    -0.3150 ca         1 1W2       0.641200
      2 C6          -0.1420     1.7040     1.4250 ca         1 1W2       0.407200
      3 C8          -2.0380    -0.9390    -1.3370 c3         1 1W2       0.181800
      4 C10         -2.7530     0.7220    -3.1210 c3         1 1W2       0.132100
      5 C17         -0.8800     1.4860    -4.7100 ca         1 1W2      -0.162300
      6 C20         -0.1560     2.0100    -7.3900 ca         1 1W2       0.186900
      7 C21         -0.8760     0.8450    -7.0810 ca         1 1W2      -0.197000
      8 C22         -1.2270     0.5860    -5.7470 ca         1 1W2       0.160900
      9 C1           1.0680     1.2470     1.9680 ca         1 1W2      -0.228300
     10 C2           1.7260     0.2030     1.3210 ca         1 1W2      -0.039000
     11 C3           1.1530    -0.3550     0.1700 ca         1 1W2      -0.080300
     12 N5          -0.7150     1.2040     0.3160 nb         1 1W2      -0.780000
     13 N7          -0.6600    -0.4880    -1.4630 nh         1 1W2      -0.753300
     14 C9          -2.9090    -0.6740    -2.5620 c3         1 1W2      -0.116400
     15 C11         -1.2450     1.1930    -3.2800 c3         1 1W2       0.133500
     16 C12         -0.3010     0.0620    -2.7440 c3         1 1W2       0.202800
     17 N13         -1.1350     2.3790    -2.3910 n2         1 1W2      -0.521900
     18 C14         -2.2880     2.5190    -1.7960 c2         1 1W2       0.632500
     19 O15         -3.3370     1.6680    -2.1580 os         1 1W2      -0.439400
     20 N16         -2.6440     3.4330    -0.7140 nz         1 1W2      -0.764600
     21 C18         -0.1410     2.6260    -5.0510 ca         1 1W2      -0.060000
     22 C19          0.2170     2.9000    -6.3640 ca         1 1W2      -0.176000
     23 F23         -1.9040    -0.5580    -5.4800 f          1 1W2      -0.136900
     24 F24          0.1840     2.2710    -8.6690 f          1 1W2      -0.108900
     25 C25          1.8020    -1.4260    -0.4960 cg         1 1W2       0.221800
     26 N26          2.3280    -2.3070    -1.0450 n1         1 1W2      -0.306800
     27 H1          -0.6930     2.5260     1.9170 h4         1 1W2       0.006100
     28 H2          -1.9850    -2.0560    -1.1750 h1         1 1W2       0.068700
     29 H3          -2.5450    -0.4940    -0.4350 h1         1 1W2       0.068700
     30 H4          -3.3390     0.8670    -4.0660 h1         1 1W2       0.116700
     31 H5          -1.1580     0.1350    -7.8740 ha         1 1W2       0.184000
     32 H6           1.4800     1.7000     2.8810 ha         1 1W2       0.171000
     33 H7           2.6820    -0.1890     1.7080 ha         1 1W2       0.175000
     34 H8          -3.9820    -0.8410    -2.2770 hc         1 1W2       0.093700
     35 H9          -2.6570    -1.4010    -3.3830 hc         1 1W2       0.093700
     36 H10         -0.3610    -0.7790    -3.4970 h1         1 1W2       0.098700
     37 H11          0.7560     0.4470    -2.7170 h1         1 1W2       0.098700
     38 H12         -2.6180     2.8960     0.1690 hn         1 1W2       0.490133
     39 H13         -3.5960     3.7850    -0.8790 hn         1 1W2       0.490133
     40 H14          0.1890     3.3350    -4.2730 ha         1 1W2       0.154000
     41 H15          0.7960     3.8030    -6.6120 ha         1 1W2       0.170000
     42 H163        -1.9740     4.2100    -0.6710 hn         1 1W2       0.490133
@<TRIPOS>BOND
     1     1    11 ar  
     2     1    12 ar  
     3     1    13 1   
     4     2     9 ar  
     5     2    12 ar  
     6     2    27 1   
     7     3    13 1   
     8     3    14 1   
     9     3    28 1   
    10     3    29 1   
    11     4    14 1   
    12     4    15 1   
    13     4    19 1   
    14     4    30 1   
    15     5     8 ar  
    16     5    15 1   
    17     5    21 ar  
    18     6     7 ar  
    19     6    22 ar  
    20     6    24 1   
    21     7     8 ar  
    22     7    31 1   
    23     8    23 1   
    24     9    10 ar  
    25     9    32 1   
    26    10    11 ar  
    27    10    33 1   
    28    11    25 1   
    29    13    16 1   
    30    14    34 1   
    31    14    35 1   
    32    15    16 1   
    33    15    17 1   
    34    16    36 1   
    35    16    37 1   
    36    17    18 2   
    37    18    19 1   
    38    18    20 1   
    39    20    38 1   
    40    20    39 1   
    41    20    42 1   
    42    21    22 ar  
    43    21    40 1   
    44    22    41 1   
    45    25    26 3   
@<TRIPOS>SUBSTRUCTURE
     1 1W2         1 TEMP              0 ****  ****    0 ROOT
