@<TRIPOS>MOLECULE
molecule
   42    45     1     0     0
SMALL
bcc


@<TRIPOS>ATOM
      1 C4           0.0000     0.0000     0.0000 ca         1 1W2       0.613200
      2 C6          -0.0520    -0.0040     2.3080 ca         1 1W2       0.439200
      3 C8          -1.4560    -1.2320    -1.3720 c3         1 1W2       0.172800
      4 C10         -2.9370    -0.0830    -3.0200 c3         1 1W2       0.288100
      5 C17         -1.6410     1.9670    -3.6870 ca         1 1W2      -0.302300
      6 C20         -0.3080     3.2550    -5.7420 ca         1 1W2       0.194900
      7 C21          0.2120     2.0910    -5.2020 ca         1 1W2      -0.196000
      8 C22         -0.4550     1.4470    -4.1750 ca         1 1W2       0.164900
      9 C1           1.3280    -0.0100     2.3890 ca         1 1W2      -0.243300
     10 C2           2.0790     0.0000     1.2270 ca         1 1W2      -0.042000
     11 C3           1.4050     0.0000     0.0000 ca         1 1W2      -0.091300
     12 N5          -0.6700     0.0010     1.1420 nb         1 1W2      -0.684000
     13 N7          -0.6880     0.0050    -1.2010 nh         1 1W2      -0.675300
     14 C9          -2.0060    -1.2500    -2.7990 c3         1 1W2      -0.386400
     15 C11         -2.3690     1.2670    -2.5680 c3         1 1W2       0.317500
     16 C12         -1.5080     1.1930    -1.3260 c3         1 1W2       0.074800
     17 N13         -3.6190     1.9850    -2.2050 n2         1 1W2      -0.552900
     18 C14         -4.5580     1.1000    -2.0480 c2         1 1W2       0.649500
     19 O15         -4.1380    -0.1730    -2.2370 os         1 1W2      -0.400400
     20 N16         -5.8470     1.4230    -1.7020 nz         1 1W2      -0.889600
     21 C18         -2.1580     3.1320    -4.2230 ca         1 1W2      -0.014000
     22 C19         -1.4930     3.7750    -5.2500 ca         1 1W2      -0.182000
     23 F23          0.0520     0.3110    -3.6460 f          1 1W2      -0.111900
     24 F24          0.3420     3.8840    -6.7450 f          1 1W2      -0.107900
     25 C25          2.1360    -0.0020    -1.2320 cg         1 1W2       0.229800
     26 N26          2.7230     0.0140    -2.2040 n1         1 1W2      -0.323800
     27 H1          -0.5300     0.0400     3.2790 h4         1 1W2       0.041100
     28 H2          -1.9310    -1.1580    -2.3420 h1         1 1W2       0.119200
     29 H3          -0.6940    -1.9860    -1.5320 h1         1 1W2       0.119200
     30 H4          -3.1980    -0.0270    -4.0700 h1         1 1W2       0.071700
     31 H5           1.0900     1.5270    -5.4940 ha         1 1W2       0.186000
     32 H6           1.6670     0.0600     3.4150 ha         1 1W2       0.163000
     33 H7           3.1600     0.0020     1.3050 ha         1 1W2       0.168000
     34 H8          -2.4050    -2.0080    -3.4630 hc         1 1W2       0.066700
     35 H9          -2.6160    -0.3880    -3.0420 hc         1 1W2       0.066700
     36 H10         -0.6950     1.8980    -1.4520 h1         1 1W2       0.069200
     37 H11         -1.7700     1.0990    -2.3730 h1         1 1W2       0.069200
     38 H12         -6.5490     1.2640    -1.0070 hn         1 1W2       0.528800
     39 H13         -5.7890     2.4200    -1.6500 hn         1 1W2       0.528800
     40 H14         -3.0720     3.5020    -3.7730 ha         1 1W2       0.156000
     41 H15         -1.7060     4.5740    -5.9490 ha         1 1W2       0.175000
     42 H163        -6.3360     0.5760    -1.9160 hn         1 1W2       0.528800
@<TRIPOS>BOND
     1    20    18 1   
     2    22    21 ar  
     3    22     6 ar  
     4    21     5 ar  
     5    17    18 2   
     6    17    15 1   
     7    18    19 1   
     8    24     6 1   
     9     6     7 ar  
    10     5    15 1   
    11     5     8 ar  
    12    26    25 3   
    13    10     9 ar  
    14    10    11 ar  
    15    15    16 1   
    16    15     4 1   
    17    25    11 1   
    18    19     4 1   
    19     9     2 ar  
    20    11     1 ar  
    21    16    13 1   
    22     2    12 ar  
    23     1    12 ar  
    24     1    13 1   
    25     7     8 ar  
    26     4    14 1   
    27     8    23 1   
    28    13     3 1   
    29     3    14 1   
    30     2    27 1   
    31     3    28 1   
    32     3    29 1   
    33     4    30 1   
    34     7    31 1   
    35     9    32 1   
    36    10    33 1   
    37    14    34 1   
    38    14    35 1   
    39    16    36 1   
    40    16    37 1   
    41    20    38 1   
    42    20    39 1   
    43    21    40 1   
    44    22    41 1   
    45    42    20 1   
@<TRIPOS>SUBSTRUCTURE
     1 1W2         1 TEMP              0 ****  ****    0 ROOT
