@<TRIPOS>MOLECULE
1W3
   42    44     1     0     0
SMALL
bcc


@<TRIPOS>ATOM
      1 CAC         0.0440    0.0790    0.0160 c3        1 1W3     -0.073900
      2 CAR         1.5200   -0.0570   -0.0110 cc        1 1W3      0.049600
      3 CAX         2.2190   -0.0640    1.2570 ca        1 1W3     -0.179800
      4 CAJ         1.5620    0.0030    2.5020 ca        1 1W3     -0.046000
      5 CAI         2.2680   -0.0130    3.6890 ca        1 1W3     -0.183000
      6 CAQ         3.6790   -0.0980    3.6570 ca        1 1W3      0.173100
      7 OAE         4.3130   -0.1070    4.8730 oh        1 1W3     -0.488100
      8 CAM         4.3710   -0.1700    2.4480 ca        1 1W3     -0.245000
      9 CAW         3.6250   -0.1530    1.2570 ca        1 1W3      0.191100
     10 OAN         4.3600   -0.2270    0.0990 os        1 1W3     -0.325200
     11 CAV         3.6920   -0.2310   -1.1280 c         1 1W3      0.729800
     12 OAD         4.5130   -0.2860   -2.0440 o         1 1W3     -0.569500
     13 CAU         2.2310   -0.1700   -1.1720 cd        1 1W3     -0.160200
     14 CAH         1.5940   -0.2560   -2.4750 cf        1 1W3     -0.143000
     15 CAG         2.1220    0.2220   -3.6150 ce        1 1W3     -0.063200
     16 CAS         1.4840    0.1370   -4.9170 ca        1 1W3     -0.092800
     17 CAK         2.2840    0.2450   -6.0680 ca        1 1W3     -0.083000
     18 CAO         1.7270    0.1710   -7.3420 ca        1 1W3     -0.129800
     19 CAA         2.5640    0.2760   -8.5580 c3        1 1W3     -0.048300
     20 CAT         0.3320   -0.0090   -7.4620 ca        1 1W3      0.130100
     21 OAF        -0.1540   -0.0710   -8.7480 oh        1 1W3     -0.496100
     22 CAP        -0.4890   -0.1110   -6.3240 ca        1 1W3     -0.129800
     23 CAB        -1.9530   -0.2930   -6.4520 c3        1 1W3     -0.048300
     24 CAL         0.1040   -0.0370   -5.0610 ca        1 1W3     -0.083000
     25 H1         -0.2480    0.9530    0.6530 hc        1 1W3      0.058367
     26 H2         -0.3840    0.2460   -1.0020 hc        1 1W3      0.058367
     27 H3         -0.4160   -0.8460    0.4480 hc        1 1W3      0.058367
     28 H4          0.4620    0.0650    2.5310 ha        1 1W3      0.142000
     29 H5          1.7580    0.0390    4.6620 ha        1 1W3      0.158000
     30 H6          5.2680   -0.1700    4.7170 ho        1 1W3      0.428000
     31 H7          5.4660   -0.2400    2.4050 ha        1 1W3      0.162000
     32 H8          0.6170   -0.7720   -2.4810 ha        1 1W3      0.128000
     33 H9          3.1200    0.7020   -3.6110 ha        1 1W3      0.150000
     34 H10         3.3720    0.3850   -5.9600 ha        1 1W3      0.137000
     35 H11         3.6420    0.4170   -8.3000 hc        1 1W3      0.046033
     36 H12         2.4580   -0.6520   -9.1750 hc        1 1W3      0.046033
     37 H13         2.2240    1.1400   -9.1820 hc        1 1W3      0.046033
     38 H14        -1.1120   -0.2020   -8.7080 ho        1 1W3      0.420000
     39 H15        -2.4410   -0.3470   -5.4480 hc        1 1W3      0.046033
     40 H16        -2.1860   -1.2400   -7.0020 hc        1 1W3      0.046033
     41 H17        -2.4090    0.5620   -7.0130 hc        1 1W3      0.046033
     42 H18        -0.5350   -0.1090   -4.1670 ha        1 1W3      0.137000
@<TRIPOS>BOND
     1    1    2 1   
     2    1   25 1   
     3    1   26 1   
     4    1   27 1   
     5    2    3 1   
     6    2   13 2   
     7    3    4 ar  
     8    3    9 ar  
     9    4    5 ar  
    10    4   28 1   
    11    5    6 ar  
    12    5   29 1   
    13    6    7 1   
    14    6    8 ar  
    15    7   30 1   
    16    8    9 ar  
    17    8   31 1   
    18    9   10 1   
    19   10   11 1   
    20   11   12 2   
    21   11   13 1   
    22   13   14 1   
    23   14   15 2   
    24   14   32 1   
    25   15   16 1   
    26   15   33 1   
    27   16   17 ar  
    28   16   24 ar  
    29   17   18 ar  
    30   17   34 1   
    31   18   19 1   
    32   18   20 ar  
    33   19   35 1   
    34   19   36 1   
    35   19   37 1   
    36   20   21 1   
    37   20   22 ar  
    38   21   38 1   
    39   22   23 1   
    40   22   24 ar  
    41   23   39 1   
    42   23   40 1   
    43   23   41 1   
    44   24   42 1   
@<TRIPOS>SUBSTRUCTURE
     1 1W3         1 TEMP              0 ****  ****    0 ROOT
