@<TRIPOS>MOLECULE
1W3
   42    44     1     0     0
SMALL
bcc


@<TRIPOS>ATOM
      1 CAC          0.2850     2.2080    -0.2800 c3         1 1W3      -0.073900
      2 CAR          1.3400     1.2060    -0.5640 cc         1 1W3       0.061600
      3 CAX          1.6240     0.2000     0.4380 ca         1 1W3      -0.179800
      4 CAJ          0.9340     0.1160     1.6610 ca         1 1W3      -0.036000
      5 CAI          1.2440    -0.8630     2.5900 ca         1 1W3      -0.240000
      6 CAQ          2.2660    -1.7920     2.3090 ca         1 1W3       0.169100
      7 OAE          2.6190    -2.7840     3.1900 oh         1 1W3      -0.487100
      8 CAM          2.9770    -1.7480     1.1060 ca         1 1W3      -0.185000
      9 CAW          2.6400    -0.7450     0.1830 ca         1 1W3       0.184100
     10 OAN          3.3690    -0.7510    -0.9850 os         1 1W3      -0.324200
     11 CAV          3.0890     0.2080    -1.9600 c          1 1W3       0.727800
     12 OAD          3.8200     0.0430    -2.9370 o          1 1W3      -0.566500
     13 CAU          2.0470     1.2070    -1.7270 cd         1 1W3      -0.172200
     14 CAH          1.8690     2.2100    -2.7710 cf         1 1W3      -0.123000
     15 CAG          1.0180     2.1590    -3.8030 ce         1 1W3      -0.072200
     16 CAS          0.0980     1.0810    -4.1340 ca         1 1W3      -0.098800
     17 CAK         -1.2320     1.3890    -4.4550 ca         1 1W3      -0.085500
     18 CAO         -2.1390     0.3890    -4.7980 ca         1 1W3      -0.128300
     19 CAA         -3.5470     0.7010    -5.1260 c3         1 1W3      -0.048800
     20 CAT         -1.6880    -0.9500    -4.8330 ca         1 1W3       0.127100
     21 OAF         -2.6340    -1.8890    -5.1790 oh         1 1W3      -0.499100
     22 CAP         -0.3550    -1.2780    -4.5300 ca         1 1W3      -0.128300
     23 CAB          0.1200    -2.6790    -4.5800 c3         1 1W3      -0.048800
     24 CAL          0.5250    -0.2500    -4.1810 ca         1 1W3      -0.085500
     25 H1           0.5270     2.7650     0.6600 hc         1 1W3       0.059700
     26 H2           0.1890     2.9450    -1.1150 hc         1 1W3       0.059700
     27 H3          -0.7020     1.6960    -0.1470 hc         1 1W3       0.059700
     28 H4           0.1340     0.8400     1.8810 ha         1 1W3       0.142000
     29 H5           0.6980    -0.9190     3.5420 ha         1 1W3       0.141000
     30 H6           2.0560    -2.7040     3.9750 ho         1 1W3       0.425000
     31 H7           3.7730    -2.4720     0.8860 ha         1 1W3       0.177000
     32 H8           2.5340     3.0860    -2.6570 ha         1 1W3       0.136000
     33 H9           0.9790     3.0150    -4.5030 ha         1 1W3       0.131000
     34 H10         -1.5680     2.4380    -4.4330 ha         1 1W3       0.141500
     35 H11         -4.2310     0.1870    -4.4050 hc         1 1W3       0.046533
     36 H12         -3.7410     1.8000    -5.0870 hc         1 1W3       0.046533
     37 H13         -3.7920     0.3270    -6.1520 hc         1 1W3       0.046533
     38 H14         -2.2080    -2.7580    -5.1940 ho         1 1W3       0.421000
     39 H15          1.2040    -2.7460    -4.3150 hc         1 1W3       0.046533
     40 H16         -0.4540    -3.3150    -3.8600 hc         1 1W3       0.046533
     41 H17         -0.0110    -3.1020    -5.6090 hc         1 1W3       0.046533
     42 H18          1.5770    -0.4880    -3.9480 ha         1 1W3       0.141500
@<TRIPOS>BOND
     1     1     2 1   
     2     1    25 1   
     3     1    26 1   
     4     1    27 1   
     5     2     3 1   
     6     2    13 2   
     7     3     4 ar  
     8     3     9 ar  
     9     4     5 ar  
    10     4    28 1   
    11     5     6 ar  
    12     5    29 1   
    13     6     7 1   
    14     6     8 ar  
    15     7    30 1   
    16     8     9 ar  
    17     8    31 1   
    18     9    10 1   
    19    10    11 1   
    20    11    12 2   
    21    11    13 1   
    22    13    14 1   
    23    14    15 2   
    24    14    32 1   
    25    15    16 1   
    26    15    33 1   
    27    16    17 ar  
    28    16    24 ar  
    29    17    18 ar  
    30    17    34 1   
    31    18    19 1   
    32    18    20 ar  
    33    19    35 1   
    34    19    36 1   
    35    19    37 1   
    36    20    21 1   
    37    20    22 ar  
    38    21    38 1   
    39    22    23 1   
    40    22    24 ar  
    41    23    39 1   
    42    23    40 1   
    43    23    41 1   
    44    24    42 1   
@<TRIPOS>SUBSTRUCTURE
     1 1W3         1 TEMP              0 ****  ****    0 ROOT
