@<TRIPOS>MOLECULE
molecule
   42    44     1     0     0
SMALL
bcc


@<TRIPOS>ATOM
      1 CAC          0.0000     0.0000     0.0000 c3         1 1W3      -0.056900
      2 CAR          1.5080     0.0000     0.0000 cc         1 1W3       0.006600
      3 CAX          2.2380     0.0000     1.2170 ca         1 1W3      -0.142800
      4 CAJ          1.5810    -0.1910     2.4400 ca         1 1W3      -0.068000
      5 CAI          2.2990    -0.2230     3.5990 ca         1 1W3      -0.176000
      6 CAQ          3.6820    -0.0530     3.5790 ca         1 1W3       0.148100
      7 OAE          4.3840    -0.1030     4.7400 oh         1 1W3      -0.516100
      8 CAM          4.3460     0.1640     2.3820 ca         1 1W3      -0.170000
      9 CAW          3.6310     0.2070     1.1960 ca         1 1W3       0.165100
     10 OAN          4.2650     0.4710     0.0270 os         1 1W3      -0.309200
     11 CAV          3.6950    -0.0310    -1.0910 c          1 1W3       0.746800
     12 OAD          4.3740    -0.4950    -1.9880 o          1 1W3      -0.563500
     13 CAU          2.2240    -0.0060    -1.1890 cd         1 1W3      -0.176200
     14 CAH          1.5430     0.0180    -2.4920 cf         1 1W3      -0.136000
     15 CAG          2.2650     0.0110    -3.6280 ce         1 1W3      -0.081200
     16 CAS          1.5830     0.0350    -4.9320 ca         1 1W3      -0.065800
     17 CAK          2.3300     0.0280    -6.1150 ca         1 1W3      -0.108500
     18 CAO          1.6890     0.0500    -7.3330 ca         1 1W3      -0.102300
     19 CAA          2.4930     0.0430    -8.6070 c3         1 1W3      -0.042800
     20 CAT          0.3010     0.0790    -7.3900 ca         1 1W3       0.104100
     21 OAF         -0.3270     0.1000    -8.5940 oh         1 1W3      -0.520100
     22 CAP         -0.4460     0.0850    -6.2190 ca         1 1W3      -0.102300
     23 CAB         -1.9510     0.1150    -6.2870 c3         1 1W3      -0.042800
     24 CAL          0.1870     0.0570    -4.9950 ca         1 1W3      -0.108500
     25 H1          -0.3610     0.3220     0.9690 hc         1 1W3       0.054367
     26 H2          -0.3610     0.6780    -0.7640 hc         1 1W3       0.054367
     27 H3          -0.3610    -1.0000    -0.2060 hc         1 1W3       0.054367
     28 H4           0.5060    -0.3240     2.4640 ha         1 1W3       0.145000
     29 H5           1.7900    -0.3780     4.5430 ha         1 1W3       0.147000
     30 H6           4.6540    -0.9910     4.9060 ho         1 1W3       0.427000
     31 H7           5.4210     0.2940     2.3730 ha         1 1W3       0.164000
     32 H8           0.4610     0.0400    -2.5380 ha         1 1W3       0.137000
     33 H9           3.3470    -0.0120    -3.5820 ha         1 1W3       0.169000
     34 H10          3.4110    -0.0430    -6.0720 ha         1 1W3       0.137000
     35 H11          2.3450     0.9780    -9.1340 hc         1 1W3       0.045700
     36 H12          2.1700    -0.7800    -9.2340 hc         1 1W3       0.045700
     37 H13          3.5440    -0.0750    -8.3700 hc         1 1W3       0.045700
     38 H14         -0.4610     0.9940    -8.8630 ho         1 1W3       0.418000
     39 H15         -2.2780     1.0950    -6.6120 hc         1 1W3       0.045700
     40 H16         -2.2950    -0.6330    -6.9910 hc         1 1W3       0.045700
     41 H17         -2.3610    -0.0960    -5.3060 hc         1 1W3       0.045700
     42 H18         -0.3970     0.0620    -4.0820 ha         1 1W3       0.137000
@<TRIPOS>BOND
     1    21    20 1
     2    19    18 1
     3    20    18 ar
     4    20    22 ar
     5    23    22 1
     6    18    17 ar
     7    22    24 ar
     8    17    16 ar
     9    24    16 ar
    10    16    15 1
    11    15    14 2
    12    14    13 1
    13     1     2 1
    14    13     2 2
    15    13    11 1
    16    12    11 2
    17     2     3 1
    18    11    10 1
    19     3     4 ar
    20     3     9 ar
    21    10     9 1
    22     4     5 ar
    23     9     8 ar
    24     5     6 ar
    25     8     6 ar
    26     6     7 1
    27     1    25 1
    28     1    26 1
    29     1    27 1
    30     4    28 1
    31     5    29 1
    32     7    30 1
    33     8    31 1
    34    14    32 1
    35    15    33 1
    36    17    34 1
    37    19    35 1
    38    19    36 1
    39    19    37 1
    40    21    38 1
    41    23    39 1
    42    23    40 1
    43    23    41 1
    44    24    42 1
@<TRIPOS>SUBSTRUCTURE
     1 1W3         1 TEMP              0 ****  ****    0 ROOT
