@<TRIPOS>MOLECULE
1W4
   54    58     1     0     0
SMALL
bcc


@<TRIPOS>ATOM
      1 C1           0.0000     0.0000     0.0000 c2         1 1W4       0.233000
      2 O2           1.2160     0.0000     0.0000 o          1 1W4      -0.309000
      3 C3          -0.7390     0.0000     1.2800 c2         1 1W4      -0.063000
      4 C4          -0.0430    -0.0000     2.4900 c2         1 1W4      -0.173000
      5 C5          -0.7350     0.0010     3.6910 c2         1 1W4       0.024000
      6 C6          -2.1230     0.0010     3.6970 c2         1 1W4      -0.246000
      7 C7          -2.8270    -0.0000     2.4900 c3         1 1W4       0.097000
      8 C8          -2.1320     0.0050     1.2800 c2         1 1W4      -0.198000
      9 N9          -0.0340     0.0010     4.9000 n3         1 1W4       0.006000
     10 C10         -0.7640     0.0010     6.1710 c3         1 1W4      -0.065500
     11 C11          1.4310    -0.0000     4.8970 c3         1 1W4      -0.065500
     12 C12         -4.3000    -0.0000     2.4960 c2         1 1W4      -0.059000
     13 C13         -4.9770    -0.0020     1.3360 c2         1 1W4      -0.032000
     14 C14         -6.4500    -0.0020     1.3420 c3         1 1W4       0.020000
     15 C15         -7.1560    -0.0030     0.1350 c2         1 1W4      -0.158000
     16 C16         -8.5330    -0.0040     0.1460 c2         1 1W4      -0.072000
     17 C17         -9.2210    -0.0040     1.3530 c2         1 1W4       0.034000
     18 C18         -8.5240    -0.0030     2.5540 c2         1 1W4      -0.072000
     19 C19         -7.1470    -0.0080     2.5530 c2         1 1W4      -0.158000
     20 C26         -9.2960    -0.0050    -1.1540 c3         1 1W4      -0.056000
     21 C27         -9.2760    -0.0030     3.8600 c3         1 1W4      -0.056000
     22 O28        -10.5800     0.0010     1.3580 oh         1 1W4      -0.247000
     23 S1          -0.8800     0.0070    -1.5270 ss         1 1W4       0.096000
     24 H1           1.0410    -0.0000     2.4900 ha         1 1W4       0.137000
     25 H2          -2.6600    -0.0010     4.6380 ha         1 1W4       0.130000
     26 H3          -2.6750     0.0040     0.3420 ha         1 1W4       0.140000
     27 H4          -1.3870     0.8850     6.2290 h1         1 1W4       0.046000
     28 H5          -0.0580     0.0020     6.9930 h1         1 1W4       0.046000
     29 H6          -1.3860    -0.8840     6.2300 h1         1 1W4       0.046000
     30 H7           1.7910    -0.8850     4.3860 h1         1 1W4       0.046000
     31 H8           1.7920     0.8840     4.3860 h1         1 1W4       0.046000
     32 H9           1.7950    -0.0010     5.9180 h1         1 1W4       0.046000
     33 H10         -3.6890    -0.8750     2.3080 DU         1 1W4       0.064000
     34 H11         -5.5880    -0.8760     1.5260 DU         1 1W4       0.079000
     35 H12         -6.6210    -0.0030    -0.8070 ha         1 1W4       0.123500
     36 H13         -6.6040    -0.0070     3.4910 ha         1 1W4       0.123500
     37 H14         -8.6010     0.0890    -1.9800 hc         1 1W4       0.049333
     38 H15         -9.9870     0.8290    -1.1680 hc         1 1W4       0.049333
     39 H16         -9.8470    -0.9320    -1.2490 hc         1 1W4       0.049333
     40 H17         -8.5750     0.0950     4.6800 hc         1 1W4       0.049333
     41 H18         -9.8230    -0.9320     3.9620 hc         1 1W4       0.049333
     42 H19         -9.9700     0.8280     3.8770 hc         1 1W4       0.049333
     43 H20        -10.8970    -0.8870     1.3600 ho         1 1W4       0.196000
     44 C2           0.4640     0.1680    -2.6550 ca         1 1W4      -0.226000
     45 C9           1.0220    -0.9630    -3.2380 ca         1 1W4      -0.008500
     46 C20          2.0750    -0.8350    -4.1210 ca         1 1W4      -0.148500
     47 C21          2.5750     0.4190    -4.4260 ca         1 1W4       0.103000
     48 C22          2.0220     1.5480    -3.8460 ca         1 1W4      -0.148500
     49 C23          0.9650     1.4250    -2.9660 ca         1 1W4      -0.008500
     50 F1           3.6060     0.5430    -5.2920 f          1 1W4      -0.092000
     51 H21          0.6310    -1.9450    -2.9990 ha         1 1W4       0.119000
     52 H22          2.5100    -1.7170    -4.5770 ha         1 1W4       0.123000
     53 H23          2.4140     2.5290    -4.0880 ha         1 1W4       0.123000
     54 H24          0.5320     2.3080    -2.5120 ha         1 1W4       0.119000
@<TRIPOS>BOND
     1     1     2 1   
     2     1     3 1   
     3     1    23 1   
     4     3     4 1   
     5     3     8 1   
     6     4     5 1   
     7     4    24 1   
     8     5     6 1   
     9     5     9 1   
    10     6     7 1   
    11     6    25 1   
    12     7     8 1   
    13     7    12 1   
    14     7    33 1   
    15     8    26 1   
    16     9    10 1   
    17     9    11 1   
    18    10    27 1   
    19    10    28 1   
    20    10    29 1   
    21    11    30 1   
    22    11    31 1   
    23    11    32 1   
    24    12    13 1   
    25    12    33 1   
    26    13    14 1   
    27    13    34 1   
    28    14    15 1   
    29    14    19 1   
    30    14    34 1   
    31    15    16 1   
    32    15    35 1   
    33    16    17 1   
    34    16    20 1   
    35    17    18 1   
    36    17    22 1   
    37    18    19 1   
    38    18    21 1   
    39    19    36 1   
    40    20    37 1   
    41    20    38 1   
    42    20    39 1   
    43    21    40 1   
    44    21    41 1   
    45    21    42 1   
    46    22    43 1   
    47    23    44 1   
    48    44    45 1   
    49    44    49 1   
    50    45    46 1   
    51    45    51 1   
    52    46    47 1   
    53    46    52 1   
    54    47    48 1   
    55    47    50 1   
    56    48    49 1   
    57    48    53 1   
    58    49    54 1   
@<TRIPOS>SUBSTRUCTURE
     1 1W4         1 TEMP              0 ****  ****    0 ROOT
