@<TRIPOS>MOLECULE
molecule
   54    56     1     0     0
SMALL
bcc


@<TRIPOS>ATOM
      1 C1           0.0000     0.0000     0.0000 c          1 1W4       0.594300
      2 O2           1.2160     0.0000     0.0000 o          1 1W4      -0.520100
      3 C3          -0.7390     0.0000     1.2800 ca         1 1W4      -0.118600
      4 C4          -0.0430    -0.0000     2.4900 ca         1 1W4      -0.146000
      5 C5          -0.7350     0.0010     3.6910 ca         1 1W4       0.195600
      6 C6          -2.1230     0.0010     3.6970 ca         1 1W4      -0.169000
      7 C7          -2.8270    -0.0000     2.4900 ca         1 1W4      -0.022800
      8 C8          -2.1320     0.0050     1.2800 ca         1 1W4      -0.138000
      9 N9          -0.0340     0.0010     4.9000 nh         1 1W4      -0.741000
     10 C10         -0.7640     0.0010     6.1710 c3         1 1W4       0.230600
     11 C11          1.4310    -0.0000     4.8970 c3         1 1W4       0.230600
     12 C12         -4.3000    -0.0000     2.4960 ce         1 1W4      -0.115200
     13 C13         -4.9770    -0.0020     1.3360 cf         1 1W4      -0.100200
     14 C14         -6.4500    -0.0020     1.3420 ca         1 1W4      -0.060800
     15 C15         -7.1560    -0.0030     0.1350 ca         1 1W4      -0.111500
     16 C16         -8.5330    -0.0040     0.1460 ca         1 1W4      -0.100300
     17 C17         -9.2210    -0.0040     1.3530 ca         1 1W4       0.102100
     18 C18         -8.5240    -0.0030     2.5540 ca         1 1W4      -0.100300
     19 C19         -7.1470    -0.0080     2.5530 ca         1 1W4      -0.111500
     20 C26         -9.2960    -0.0050    -1.1540 c3         1 1W4      -0.042300
     21 C27         -9.2760    -0.0030     3.8600 c3         1 1W4      -0.042300
     22 O28        -10.5800     0.0010     1.3580 oh         1 1W4      -0.519100
     23 S1          -0.8800     0.0070    -1.5270 ss         1 1W4      -0.242500
     24 H1           1.0410    -0.0000     2.4900 ha         1 1W4       0.154000
     25 H2          -2.6600    -0.0010     4.6380 ha         1 1W4       0.137000
     26 H3          -2.6750     0.0040     0.3420 ha         1 1W4       0.143000
     27 H4          -1.3860    -0.8840     6.2300 h1         1 1W4       0.037033
     28 H5          -1.3870     0.8850     6.2290 h1         1 1W4       0.037033
     29 H6          -0.0580     0.0020     6.9930 h1         1 1W4       0.037033
     30 H7           1.7920     0.8840     4.3860 h1         1 1W4       0.037033
     31 H8           1.7950    -0.0010     5.9180 h1         1 1W4       0.037033
     32 H9           1.7910    -0.8850     4.3860 h1         1 1W4       0.037033
     33 H10         -4.8380     0.0000     3.4370 ha         1 1W4       0.134000
     34 H11         -4.4390    -0.0020     0.3960 ha         1 1W4       0.137000
     35 H12         -6.6210    -0.0030    -0.8070 ha         1 1W4       0.136500
     36 H13         -6.6040    -0.0070     3.4910 ha         1 1W4       0.136500
     37 H14         -8.6010     0.0900    -1.9800 hc         1 1W4       0.045367
     38 H15         -9.9880     0.8290    -1.1670 hc         1 1W4       0.045367
     39 H16         -9.8460    -0.9330    -1.2500 hc         1 1W4       0.045367
     40 H17         -9.8230    -0.9330     3.9620 hc         1 1W4       0.045367
     41 H18         -8.5750     0.0960     4.6800 hc         1 1W4       0.045367
     42 H19         -9.9710     0.8280     3.8770 hc         1 1W4       0.045367
     43 H20        -10.8970    -0.8870     1.3600 ho         1 1W4       0.417000
     44 C2           0.4640     0.1680    -2.6550 ca         1 1W4      -0.014100
     45 C9           1.0220    -0.9630    -3.2380 ca         1 1W4      -0.045500
     46 C20          2.0750    -0.8350    -4.1210 ca         1 1W4      -0.180000
     47 C21          2.5750     0.4190    -4.4260 ca         1 1W4       0.162900
     48 C22          2.0220     1.5480    -3.8460 ca         1 1W4      -0.180000
     49 C23          0.9650     1.4250    -2.9660 ca         1 1W4      -0.045500
     50 F1           3.6060     0.5430    -5.2920 f          1 1W4      -0.137900
     51 H21          0.6310    -1.9450    -2.9990 ha         1 1W4       0.148500
     52 H22          2.5100    -1.7170    -4.5770 ha         1 1W4       0.150000
     53 H23          2.4140     2.5290    -4.0880 ha         1 1W4       0.150000
     54 H24          0.5320     2.3080    -2.5120 ha         1 1W4       0.148500
@<TRIPOS>BOND
     1    22    17 1
     2    21    18 1
     3    17    18 ar
     4    17    16 ar
     5    20    16 1
     6    18    19 ar
     7    16    15 ar
     8    19    14 ar
     9    15    14 ar
    10    14    13 1
    11    13    12 2
    12    12     7 1
    13     7     6 ar
    14     7     8 ar
    15     6     5 ar
    16     8     3 ar
    17     5     9 1
    18     5     4 ar
    19     3     4 ar
    20     3     1 1
    21    10     9 1
    22     9    11 1
    23     1     2 2
    24     1    23 1
    25     4    24 1
    26     6    25 1
    27     8    26 1
    28    10    27 1
    29    10    28 1
    30    10    29 1
    31    11    30 1
    32    11    31 1
    33    11    32 1
    34    12    33 1
    35    13    34 1
    36    15    35 1
    37    19    36 1
    38    20    37 1
    39    20    38 1
    40    20    39 1
    41    21    40 1
    42    21    41 1
    43    21    42 1
    44    22    43 1
    45    23    44 1
    46    44    45 ar
    47    45    46 ar
    48    46    47 ar
    49    47    48 ar
    50    48    49 ar
    51    49    44 ar
    52    47    50 1
    53    45    51 1
    54    46    52 1
    55    48    53 1
    56    49    54 1
@<TRIPOS>SUBSTRUCTURE
     1 1W4         1 TEMP              0 ****  ****    0 ROOT
