@<TRIPOS>MOLECULE
molecule
   38    40     1     0     0
SMALL
bcc


@<TRIPOS>ATOM
      1 O12          0.0000     0.0000     0.0000 o          1 1W6      -0.545100
      2 C12          1.2160     0.0000     0.0000 c          1 1W6       0.604800
      3 C26          1.9550     0.0000     1.2790 cc         1 1W6       0.356200
      4 S27          3.7070     0.0080     1.4280 ss         1 1W6      -0.096100
      5 C28          3.5660     0.0040     3.1850 ca         1 1W6      -0.034100
      6 C34          4.5360     0.0060     4.1880 ca         1 1W6      -0.095000
      7 C33          4.1570     0.0010     5.5100 ca         1 1W6      -0.102000
      8 C32          2.8090    -0.0050     5.8480 ca         1 1W6      -0.133000
      9 C31          1.8480    -0.0070     4.8860 ca         1 1W6      -0.057000
     10 C29          2.2030    -0.0030     3.5170 ca         1 1W6       0.105400
     11 N30          1.4070     0.0020     2.4470 nd         1 1W6      -0.505100
     12 N13          1.8900    -0.0070    -1.1680 ns         1 1W6      -0.423100
     13 C14          1.1970    -0.0140    -2.3670 cd         1 1W6       0.146500
     14 S15         -0.5020    -0.0130    -2.5050 ss         1 1W6       0.049200
     15 C16         -0.4370    -0.0230    -4.2580 cd         1 1W6      -0.147100
     16 C17          0.8180    -0.0270    -4.6830 cc         1 1W6      -0.112000
     17 C18          1.7840    -0.0150    -3.6070 cc         1 1W6      -0.281600
     18 C19          3.2340    -0.0160    -3.8180 c          1 1W6       0.719700
     19 O19          3.9880    -0.0050    -2.8620 o          1 1W6      -0.569100
     20 N20          3.7330    -0.0290    -5.0700 ns         1 1W6      -0.557500
     21 C21          5.0660    -0.0300    -5.2640 c          1 1W6       0.741100
     22 O22          5.8190    -0.0190    -4.3110 o          1 1W6      -0.540000
     23 O21          5.5650    -0.0420    -6.5140 os         1 1W6      -0.446900
     24 C37          7.0110    -0.0420    -6.6480 c3         1 1W6       0.165400
     25 C38          7.3850    -0.0570    -8.1310 c3         1 1W6      -0.098100
     26 H1           5.5870     0.0120     3.9260 ha         1 1W6       0.142000
     27 H2           4.9100     0.0030     6.2890 ha         1 1W6       0.140000
     28 H3           2.5200    -0.0090     6.8920 ha         1 1W6       0.140000
     29 H4           0.8030    -0.0120     5.1710 ha         1 1W6       0.151000
     30 H5           2.8900    -0.0310    -1.1680 hn         1 1W6       0.374500
     31 H6          -1.3050    -0.0290    -4.9060 h4         1 1W6       0.175000
     32 H7           1.0930    -0.0310    -5.7310 ha         1 1W6       0.144000
     33 H8           3.1130    -0.0170    -5.8560 hn         1 1W6       0.333500
     34 H9           7.4180    -0.9220    -6.1640 h1         1 1W6       0.052700
     35 H10          7.4170     0.8470    -6.1810 h1         1 1W6       0.052700
     36 H11          8.4640    -0.0570    -8.2310 hc         1 1W6       0.049033
     37 H12          6.9780     0.8230    -8.6150 hc         1 1W6       0.049033
     38 H13          6.9790    -0.9460    -8.5970 hc         1 1W6       0.049033
@<TRIPOS>BOND
     1    19    18 2
     2    22    21 2
     3    18    20 1
     4    18    17 1
     5    21    23 1
     6    21    20 1
     7    16    17 1
     8    16    15 2
     9    23    24 1
    10    17    13 2
    11    24    25 1
    12    15    14 1
    13    13    14 1
    14    13    12 1
    15    12     2 1
    16     4     3 1
    17     4     5 1
    18     2     1 2
    19     2     3 1
    20     3    11 2
    21     6     5 ar
    22     6     7 ar
    23     5    10 ar
    24    11    10 1
    25    10     9 ar
    26     7     8 ar
    27     9     8 ar
    28     6    26 1
    29     7    27 1
    30     8    28 1
    31     9    29 1
    32    12    30 1
    33    15    31 1
    34    16    32 1
    35    20    33 1
    36    24    34 1
    37    24    35 1
    38    25    36 1
    39    25    37 1
    40    25    38 1
@<TRIPOS>SUBSTRUCTURE
     1 1W6         1 TEMP              0 ****  ****    0 ROOT
