@<TRIPOS>MOLECULE
1W6
   38    40     1     0     0
SMALL
bcc


@<TRIPOS>ATOM
      1 O12          0.0000     0.0000     0.0000 o          1 1W6      -0.569100
      2 C12          1.2160     0.0000     0.0000 c          1 1W6       0.499800
      3 C26          1.9550     0.0000     1.2790 cc         1 1W6       0.308200
      4 S27          3.7070     0.0080     1.4280 ss         1 1W6      -0.197100
      5 C28          3.5660     0.0040     3.1850 ca         1 1W6       0.007900
      6 C34          4.5360     0.0060     4.1880 ca         1 1W6      -0.057000
      7 C33          4.1570     0.0010     5.5100 ca         1 1W6      -0.071000
      8 C32          2.8090    -0.0050     5.8480 ca         1 1W6      -0.107000
      9 C31          1.8480    -0.0070     4.8860 ca         1 1W6      -0.025000
     10 C29          2.2030    -0.0030     3.5170 ca         1 1W6       0.039400
     11 N30          1.4070     0.0020     2.4470 nd         1 1W6      -0.344100
     12 N13          1.8900    -0.0070    -1.1680 ns         1 1W6       0.024900
     13 C14          1.1970    -0.0140    -2.3670 cc         1 1W6       0.080500
     14 S15         -0.5020    -0.0130    -2.5050 ss         1 1W6      -0.136800
     15 C16         -0.4370    -0.0230    -4.2580 cc         1 1W6      -0.046100
     16 C17          0.8180    -0.0270    -4.6830 cd         1 1W6      -0.083000
     17 C18          1.7840    -0.0150    -3.6070 cd         1 1W6      -0.305600
     18 C19          3.2340    -0.0160    -3.8180 c          1 1W6       0.632700
     19 O19          3.9880    -0.0050    -2.8620 o          1 1W6      -0.599100
     20 N20          3.7330    -0.0290    -5.0700 ns         1 1W6      -0.128500
     21 C21          5.0660    -0.0300    -5.2640 c          1 1W6       0.662100
     22 O22          5.8190    -0.0190    -4.3110 o          1 1W6      -0.576000
     23 O21          5.5650    -0.0420    -6.5140 os         1 1W6      -0.431900
     24 C37          7.0110    -0.0420    -6.6480 c3         1 1W6       0.244400
     25 C38          7.3850    -0.0570    -8.1310 c3         1 1W6      -0.005100
     26 H1           5.5870     0.0120     3.9260 ha         1 1W6       0.116000
     27 H2           4.9100     0.0030     6.2890 ha         1 1W6       0.109000
     28 H3           2.5200    -0.0090     6.8920 ha         1 1W6       0.110000
     29 H4           0.8030    -0.0120     5.1710 ha         1 1W6       0.117000
     30 H5           2.8900    -0.0310    -1.1680 hn         1 1W6       0.228500
     31 H6          -1.3050    -0.0290    -4.9060 h4         1 1W6       0.152000
     32 H7           1.0930    -0.0310    -5.7310 ha         1 1W6       0.115000
     33 H8           3.1130    -0.0170    -5.8560 hn         1 1W6       0.179500
     34 H9           7.4180    -0.9220    -6.1640 h1         1 1W6       0.011700
     35 H10          7.4170     0.8470    -6.1810 h1         1 1W6       0.011700
     36 H11          8.4640    -0.0570    -8.2310 hc         1 1W6       0.011033
     37 H12          6.9780     0.8230    -8.6150 hc         1 1W6       0.011033
     38 H13          6.9790    -0.9460    -8.5970 hc         1 1W6       0.011033
@<TRIPOS>BOND
     1     1     2 2   
     2     2     3 1   
     3     2    12 1   
     4     3     4 1   
     5     3    11 2   
     6     4     5 1   
     7     5     6 ar  
     8     5    10 ar  
     9     6     7 ar  
    10     6    26 1   
    11     7     8 ar  
    12     7    27 1   
    13     8     9 ar  
    14     8    28 1   
    15     9    10 ar  
    16     9    29 1   
    17    10    11 1   
    18    12    13 1   
    19    12    30 1   
    20    13    14 1   
    21    13    17 2   
    22    14    15 1   
    23    15    16 2   
    24    15    31 1   
    25    16    17 1   
    26    16    32 1   
    27    17    18 1   
    28    18    19 2   
    29    18    20 1   
    30    20    21 1   
    31    20    33 1   
    32    21    22 2   
    33    21    23 1   
    34    23    24 1   
    35    24    25 1   
    36    24    34 1   
    37    24    35 1   
    38    25    36 1   
    39    25    37 1   
    40    25    38 1   
@<TRIPOS>SUBSTRUCTURE
     1 1W6         1 TEMP              0 ****  ****    0 ROOT
