@<TRIPOS>MOLECULE
1W6
   39    41     1     0     0
SMALL
bcc


@<TRIPOS>ATOM
      1 O12          4.0070     0.3470     0.3570 o          1 1W6      -0.670100
      2 C12          2.8240     0.2810     0.7640 c          1 1W6       0.663800
      3 C26          2.5090     0.1190     2.2020 cc         1 1W6       0.222200
      4 S27          3.7390    -0.2850     3.3360 ss         1 1W6       0.147900
      5 C28          2.6300    -0.2590     4.5930 ca         1 1W6      -0.101100
      6 C34          2.8040    -0.4980     5.9620 ca         1 1W6      -0.097000
      7 C33          1.7140    -0.4110     6.8080 ca         1 1W6      -0.084000
      8 C32          0.4330    -0.0860     6.3140 ca         1 1W6      -0.121000
      9 C31          0.2220     0.1550     4.9720 ca         1 1W6      -0.059000
     10 C29          1.3230     0.0720     4.0840 ca         1 1W6       0.071400
     11 N30          1.2830     0.2810     2.7120 nd         1 1W6      -0.493100
     12 N13          1.7600     0.3480    -0.1310 ns         1 1W6      -0.422100
     13 C14          1.8770     0.6030    -1.4840 cc         1 1W6       0.109500
     14 S15          0.6450     1.3690    -2.3680 ss         1 1W6       0.141200
     15 C16          1.4860     1.3390    -3.8030 cc         1 1W6      -0.169100
     16 C17          2.7280     0.7680    -3.6760 cd         1 1W6      -0.099000
     17 C18          2.9570     0.3160    -2.3360 cd         1 1W6      -0.294600
     18 C19          4.1370    -0.4380    -1.9670 c          1 1W6       0.665700
     19 O19          4.2940    -1.6000    -1.6510 o          1 1W6      -0.395100
     20 N20          5.4310     0.4140    -1.9900 ny         1 1W6      -0.551600
     21 C21          6.2870     0.1220    -3.1630 c          1 1W6       0.618100
     22 O22          5.9320     0.3090    -4.3210 o          1 1W6      -0.448000
     23 O21          7.4880    -0.3580    -2.7900 os         1 1W6      -0.403900
     24 C37          8.3910    -0.7280    -3.8850 c3         1 1W6       0.155400
     25 C38          9.6340    -1.2330    -3.2040 c3         1 1W6      -0.115100
     26 H1           3.8010    -0.7520     6.3540 ha         1 1W6       0.153000
     27 H2           1.8410    -0.5970     7.8870 ha         1 1W6       0.154000
     28 H3          -0.4110    -0.0260     7.0210 ha         1 1W6       0.155000
     29 H4          -0.7760     0.4090     4.5850 ha         1 1W6       0.160000
     30 H5           0.8280     0.3030     0.2350 hn         1 1W6       0.370500
     31 H6           1.0680     1.7320    -4.7340 h4         1 1W6       0.207000
     32 H7           3.4590     0.6410    -4.4840 ha         1 1W6       0.187000
     33 H8           5.9470     0.2210    -1.1170 hn         1 1W6       0.485300
     34 H9           7.8790    -1.5140    -4.4980 h1         1 1W6       0.077700
     35 H10          8.5710     0.1900    -4.5020 h1         1 1W6       0.077700
     36 H11          9.4060    -2.1150    -2.5580 hc         1 1W6       0.072367
     37 H12         10.0940    -0.4370    -2.5700 hc         1 1W6       0.072367
     38 H13         10.3660    -1.5380    -3.9930 hc         1 1W6       0.072367
     39 H202         5.1640     1.4050    -2.0080 hn         1 1W6       0.485300
@<TRIPOS>BOND
     1     1     2 2   
     2     2     3 1   
     3     2    12 1   
     4     3     4 1   
     5     3    11 2   
     6     4     5 1   
     7     5     6 ar  
     8     5    10 ar  
     9     6     7 ar  
    10     6    26 1   
    11     7     8 ar  
    12     7    27 1   
    13     8     9 ar  
    14     8    28 1   
    15     9    10 ar  
    16     9    29 1   
    17    10    11 1   
    18    12    13 1   
    19    12    30 1   
    20    13    14 1   
    21    13    17 2   
    22    14    15 1   
    23    15    16 2   
    24    15    31 1   
    25    16    17 1   
    26    16    32 1   
    27    17    18 1   
    28    18    19 2   
    29    18    20 1   
    30    20    21 1   
    31    20    33 1   
    32    20    39 1   
    33    21    22 2   
    34    21    23 1   
    35    23    24 1   
    36    24    25 1   
    37    24    34 1   
    38    24    35 1   
    39    25    36 1   
    40    25    37 1   
    41    25    38 1   
@<TRIPOS>SUBSTRUCTURE
     1 1W6         1 TEMP              0 ****  ****    0 ROOT
