@<TRIPOS>MOLECULE
molecule
   44    46     1     0     0
SMALL
bcc


@<TRIPOS>ATOM
      1 C1           0.0000     0.0000     0.0000 ca         1 1W7       0.065600
      2 C2           1.3900     0.0000     0.0000 ca         1 1W7      -0.114300
      3 C3          -0.6930    -0.0000     1.2030 ca         1 1W7      -0.149000
      4 C4          -0.0010    -0.0000     2.3980 ca         1 1W7      -0.132000
      5 C5           1.3870    -0.0000     2.3980 ca         1 1W7       0.103600
      6 C7           2.0810     0.0000     1.1930 ca         1 1W7      -0.116000
      7 C9           2.1380    -0.0000    -1.3080 c3         1 1W7      -0.032100
      8 C10          2.1100    -5.0790     7.0880 ca         1 1W7      -0.125500
      9 C11          0.8220    -5.5790     7.1160 ca         1 1W7      -0.070300
     10 C12          1.3550    -0.8060    -2.3450 c3         1 1W7      -0.151400
     11 C13         -0.0850    -0.3690    -2.3520 c          1 1W7       0.702500
     12 C15          1.9230    -2.6800     4.1780 c3         1 1W7      -0.162300
     13 C16          1.5350    -3.7050     5.2130 ca         1 1W7      -0.100300
     14 C17          0.2450    -4.2000     5.2460 ca         1 1W7      -0.104000
     15 C18          2.4660    -4.1400     6.1370 ca         1 1W7      -0.104000
     16 C19         -0.1110    -5.1390     6.1950 ca         1 1W7      -0.125500
     17 N1           2.0880    -0.0010     3.6090 nu         1 1W7      -0.770500
     18 N2          -0.6980    -0.0060    -1.2140 n          1 1W7      -0.374000
     19 O1           0.2310    -0.7780     4.9750 o          1 1W7      -0.624800
     20 O2          -0.7020    -0.3530    -3.3970 o          1 1W7      -0.631500
     21 O3           2.5290    -0.7260     5.8890 o          1 1W7      -0.624800
     22 S1           1.6240    -1.0160     4.8330 s6         1 1W7       1.330900
     23 H1          -1.7770    -0.0000     1.2040 ha         1 1W7       0.146000
     24 H2          -0.5420    -0.0000     3.3370 ha         1 1W7       0.190000
     25 H3           3.1640     0.0000     1.1920 ha         1 1W7       0.138000
     26 H4          -2.4020     0.6060    -2.2640 h1         1 1W7       0.054033
     27 H5          -2.2380     1.2910    -0.6410 h1         1 1W7       0.054033
     28 H6          -2.7200    -0.3990    -0.8430 h1         1 1W7       0.054033
     29 H7           2.2530     1.0190    -1.6570 hc         1 1W7       0.060200
     30 H8           3.1130    -0.4500    -1.1650 hc         1 1W7       0.060200
     31 H9           2.8400    -5.4220     7.8110 ha         1 1W7       0.136000
     32 H10          1.4090    -1.8590    -2.0960 hc         1 1W7       0.078700
     33 H11          1.7840    -0.6400    -3.3260 hc         1 1W7       0.078700
     34 H12          1.3300    -2.8280     3.2830 h1         1 1W7       0.105200
     35 H13          2.9730    -2.7910     3.9370 h1         1 1W7       0.105200
     36 H14         -0.4860    -3.8560     4.5240 ha         1 1W7       0.138000
     37 H15          3.4750    -3.7480     6.1150 ha         1 1W7       0.138000
     38 H16         -1.1220    -5.5290     6.2190 ha         1 1W7       0.136000
     39 H17          2.8490     0.6340     3.7470 hn         1 1W7       0.465800
     40 H18         -0.4760    -6.2880     8.6490 hc         1 1W7       0.046033
     41 H19          1.2290    -6.7000     8.8810 hc         1 1W7       0.046033
     42 H20          0.2680    -7.5600     7.6690 hc         1 1W7       0.046033
     43 C8          -2.1070     0.3990    -1.2420 c3         1 1W7       0.088300
     44 C20          0.4330    -6.6040     8.1520 c3         1 1W7      -0.050800
@<TRIPOS>BOND
     1    20    11 2   
     2    43    18 1   
     3    11    18 1   
     4    11    10 1   
     5    18     1 1   
     6    10     7 1   
     7     1     3 ar  
     8     1     2 ar  
     9     3     4 ar  
    10     7     2 1   
    11     2     6 ar  
    12     4     5 ar  
    13     6     5 ar  
    14     5    17 1   
    15    44     9 1   
    16    17    22 1   
    17     9    16 ar  
    18     9     8 ar  
    19    16    14 ar  
    20    21    22 2   
    21     8    15 ar  
    22    14    13 ar  
    23    22    19 2   
    24    22    12 1   
    25    15    13 ar  
    26    13    12 1   
    27     3    23 1   
    28     4    24 1   
    29     6    25 1   
    30    43    26 1   
    31    43    27 1   
    32    43    28 1   
    33     7    29 1   
    34     7    30 1   
    35     8    31 1   
    36    10    32 1   
    37    10    33 1   
    38    12    34 1   
    39    12    35 1   
    40    14    36 1   
    41    15    37 1   
    42    16    38 1   
    43    17    39 1   
    44    44    40 1   
    45    44    41 1   
    46    44    42 1   
@<TRIPOS>SUBSTRUCTURE
     1 1W7         1 TEMP              0 ****  ****    0 ROOT
