@<TRIPOS>MOLECULE
1W7
   44    46     1     0     0
SMALL
bcc


@<TRIPOS>ATOM
      1 C1          -0.0680     0.1240    -0.0780 ca         1 1W7       0.065600
      2 C2           1.3410    -0.0100    -0.1690 ca         1 1W7      -0.105300
      3 C3          -0.6350     0.3440     1.1950 ca         1 1W7      -0.145000
      4 C4           0.1580     0.4180     2.3330 ca         1 1W7      -0.131000
      5 C5           1.5590     0.2970     2.2420 ca         1 1W7       0.131600
      6 C7           2.1320     0.0820     0.9710 ca         1 1W7      -0.126000
      7 C9           1.9700    -0.2710    -1.4920 c3         1 1W7      -0.032100
      8 C10          0.6240     4.8450     2.3690 ca         1 1W7      -0.127000
      9 C11          1.4420     5.1940     1.2880 ca         1 1W7      -0.068300
     10 C12          1.1900     0.3780    -2.6120 c3         1 1W7      -0.147400
     11 C13         -0.2990     0.1360    -2.5060 c          1 1W7       0.703500
     12 C15          2.9500     2.7230     4.4530 c3         1 1W7      -0.256300
     13 C16          2.4240     3.5520     3.3470 ca         1 1W7      -0.072300
     14 C17          3.2440     3.9040     2.2690 ca         1 1W7      -0.118000
     15 C18          1.1090     4.0350     3.3910 ca         1 1W7      -0.118000
     16 C19          2.7560     4.7150     1.2470 ca         1 1W7      -0.127000
     17 N1           2.3860     0.3590     3.3790 nu         1 1W7      -0.777500
     18 N2          -0.8680     0.0300    -1.2320 n          1 1W7      -0.375000
     19 O1           2.9530     0.5750     5.7500 o          1 1W7      -0.647300
     20 O2          -1.0140     0.0530    -3.5220 o          1 1W7      -0.626500
     21 O3           0.8240     1.4300     5.0500 o          1 1W7      -0.647300
     22 S1           2.1790     1.2030     4.7470 s6         1 1W7       1.445900
     23 H1          -1.7240     0.4590     1.3120 ha         1 1W7       0.145000
     24 H2          -0.3330     0.5890     3.3080 ha         1 1W7       0.173000
     25 H3           3.2240    -0.0260     0.8650 ha         1 1W7       0.135000
     26 H4          -2.7430    -0.3930    -2.0840 h1         1 1W7       0.053700
     27 H5          -2.5060    -0.9660    -0.3630 h1         1 1W7       0.053700
     28 H6          -2.7580     0.8120    -0.7100 h1         1 1W7       0.053700
     29 H7           2.0150    -1.3840    -1.6560 hc         1 1W7       0.060700
     30 H8           3.0250     0.1090    -1.5080 hc         1 1W7       0.060700
     31 H9          -0.4120     5.2150     2.4110 ha         1 1W7       0.135000
     32 H10          1.3490     1.4900    -2.6060 hc         1 1W7       0.081700
     33 H11          1.5360    -0.0140    -3.6050 hc         1 1W7       0.081700
     34 H12          4.0560     2.5740     4.3130 h1         1 1W7       0.119200
     35 H13          2.8620     3.3270     5.4030 h1         1 1W7       0.119200
     36 H14          4.2830     3.5430     2.2270 ha         1 1W7       0.141500
     37 H15          0.4540     3.7580     4.2350 ha         1 1W7       0.141500
     38 H16          3.4100     4.9830     0.4040 ha         1 1W7       0.135000
     39 H17          3.2030    -0.2050     3.2820 hn         1 1W7       0.455800
     40 H18          1.5200     5.9550    -0.7260 hc         1 1W7       0.046367
     41 H19          0.9810     7.1420     0.5340 hc         1 1W7       0.046367
     42 H20         -0.1440     5.8310    -0.0140 hc         1 1W7       0.046367
     43 C8          -2.2900    -0.1370    -1.0880 c3         1 1W7       0.073300
     44 C20          0.9240     6.0710     0.2130 c3         1 1W7      -0.056800
@<TRIPOS>BOND
     1     1     2 ar  
     2     1     3 ar  
     3     1    18 1   
     4     2     6 ar  
     5     2     7 1   
     6     3     4 ar  
     7     3    23 1   
     8     4     5 ar  
     9     4    24 1   
    10     5     6 ar  
    11     5    17 1   
    12     6    25 1   
    13     7    10 1   
    14     7    29 1   
    15     7    30 1   
    16     8     9 ar  
    17     8    15 ar  
    18     8    31 1   
    19     9    16 ar  
    20     9    44 1   
    21    10    11 1   
    22    10    32 1   
    23    10    33 1   
    24    11    18 1   
    25    11    20 2   
    26    12    13 1   
    27    12    22 1   
    28    12    34 1   
    29    12    35 1   
    30    13    14 ar  
    31    13    15 ar  
    32    14    16 ar  
    33    14    36 1   
    34    15    37 1   
    35    16    38 1   
    36    17    22 1   
    37    17    39 1   
    38    18    43 1   
    39    19    22 2   
    40    21    22 2   
    41    26    43 1   
    42    27    43 1   
    43    28    43 1   
    44    40    44 1   
    45    41    44 1   
    46    42    44 1   
@<TRIPOS>SUBSTRUCTURE
     1 1W7         1 TEMP              0 ****  ****    0 ROOT
