@<TRIPOS>MOLECULE
1W8
   59    63     1     0     0
SMALL
bcc


@<TRIPOS>ATOM
      1 N            0.0000     0.0000     0.0000 n2         1 1W8      -0.281200
      2 C            3.5230    -0.0000     1.1860 c3         1 1W8       0.002900
      3 O            1.4160     0.0000     0.0000 os         1 1W8      -0.134300
      4 C1           1.9970     0.0000     1.3060 c3         1 1W8       0.209400
      5 N1          -2.7970    -0.2430    -2.2490 nc         1 1W8      -0.435100
      6 O1           1.3020     0.1100    -2.4120 o          1 1W8      -0.627100
      7 S1          -2.3780    -0.8010    -5.6430 ss         1 1W8      -0.401200
      8 C2          -0.6500     0.0010    -1.1270 cf         1 1W8       0.219300
      9 N2          -2.8190    -0.0950    -0.0050 nd         1 1W8      -0.652000
     10 O2           0.7010     2.5950    -5.4120 o          1 1W8      -0.525500
     11 S2          -4.0640     1.8330    -8.6820 ss         1 1W8      -0.131900
     12 C3          -2.1270    -0.1160    -1.1310 cd         1 1W8       0.586700
     13 O3          -2.4250     3.5040    -8.6370 o          1 1W8      -0.785300
     14 S3          -5.3300     1.6830    -5.8230 ss         1 1W8      -0.289300
     15 C4          -4.1240    -0.2040    -0.1100 cc         1 1W8       0.552300
     16 N4          -0.5920     0.2320    -3.5670 ns         1 1W8      -0.180900
     17 O4          -0.3860     3.6390    -7.7580 o          1 1W8      -0.785300
     18 C5           0.0860     0.1170    -2.4080 c          1 1W8       0.488800
     19 N5          -0.8290     1.1960    -6.4580 nj         1 1W8      -0.005000
     20 C6           0.1320     0.2370    -4.8410 cy         1 1W8      -0.052300
     21 N6          -6.5700     2.5040    -7.8460 nc         1 1W8      -0.629000
     22 C7          -0.6920    -0.2220    -6.0300 cy         1 1W8       0.075800
     23 N7         -11.3710     4.0310    -7.4590 na         1 1W8       0.622900
     24 C8           0.0940     1.5570    -5.5740 c          1 1W8       0.610500
     25 C9          -1.7780     1.7320    -7.3520 ce         1 1W8       0.057400
     26 C10         -2.8930     1.0340    -7.6340 c2         1 1W8      -0.202600
     27 C11         -3.2570    -0.3350    -7.1640 c3         1 1W8       0.181900
     28 C12         -5.3930     2.0490    -7.5450 cd         1 1W8       0.633700
     29 C13         -7.4490     2.5990    -6.8570 cc         1 1W8       0.339800
     30 C14         -7.0030     2.2080    -5.6490 cd         1 1W8      -0.135400
     31 C15         -8.8270     3.1020    -7.0680 ca         1 1W8       0.013500
     32 C16         -9.2590     3.5020    -8.3380 ca         1 1W8      -0.055500
     33 C17        -10.5500     3.9640    -8.4900 ca         1 1W8      -0.258800
     34 C18        -11.0030     3.6650    -6.2450 ca         1 1W8      -0.258800
     35 C19         -9.7300     3.1920    -6.0050 ca         1 1W8      -0.055500
     36 C21         -1.5580     2.9960    -7.9500 c          1 1W8       0.913800
     37 S           -4.4330    -0.3420    -1.7990 ss         1 1W8      -0.122300
     38 HC1          3.8450     0.9020     0.6810 hc         1 1W8       0.012033
     39 HC2          3.8390    -0.8660     0.6160 hc         1 1W8       0.012033
     40 HC3          3.9630    -0.0380     2.1750 hc         1 1W8       0.012033
     41 H11C         1.6760    -0.8840     1.8440 h1         1 1W8      -0.003300
     42 H12C         1.6770     0.8850     1.8440 h1         1 1W8      -0.003300
     43 H7          -0.1480    -0.8340    -6.7390 h2         1 1W8       0.075700
     44 H111        -4.3230    -0.3680    -6.9760 h1         1 1W8       0.052700
     45 H112        -3.0110    -1.0490    -7.9420 h1         1 1W8       0.052700
     46 H14         -7.5740     2.2140    -4.7290 h4         1 1W8       0.146000
     47 H4          -1.5840     0.3620    -3.5550 hn         1 1W8       0.245500
     48 H6           1.1200    -0.2060    -4.8110 h1         1 1W8       0.092700
     49 H17        -10.8940     4.2750    -9.4690 h4         1 1W8       0.162500
     50 H18        -11.7100     3.7370    -5.4270 h4         1 1W8       0.162500
     51 H201       -13.2550     4.5620    -6.7180 h1         1 1W8       0.054033
     52 H202       -13.2580     3.8800    -8.3500 h1         1 1W8       0.054033
     53 H203       -12.6870     5.5330    -8.0840 h1         1 1W8       0.054033
     54 H16         -8.5900     3.4490    -9.1880 ha         1 1W8       0.164500
     55 H19         -9.4350     2.8930    -5.0070 ha         1 1W8       0.164500
     56 N3          -5.0510    -0.2100     0.9160 nv         1 1W8      -0.484500
     57 H31N        -4.9900     0.4680     1.6490 hn         1 1W8       0.276300
     58 H32N        -5.7990    -0.8750     0.9100 hn         1 1W8       0.276300
     59 C20        -12.7310     4.5340    -7.6660 c3         1 1W8      -0.082400
@<TRIPOS>BOND
     1     1     3 1   
     2     1     8 2   
     3     2     4 1   
     4     2    38 1   
     5     2    39 1   
     6     2    40 1   
     7     3     4 1   
     8     4    41 1   
     9     4    42 1   
    10     5    12 2   
    11     5    37 1   
    12     6    18 2   
    13     7    22 1   
    14     7    27 1   
    15     8    12 1   
    16     8    18 1   
    17     9    12 1   
    18     9    15 2   
    19    10    24 2   
    20    11    26 1   
    21    11    28 1   
    22    13    36 1   
    23    14    28 1   
    24    14    30 1   
    25    15    37 1   
    26    15    56 1   
    27    16    18 1   
    28    16    20 1   
    29    16    47 1   
    30    17    36 1   
    31    19    22 1   
    32    19    24 1   
    33    19    25 1   
    34    20    22 1   
    35    20    24 1   
    36    20    48 1   
    37    21    28 2   
    38    21    29 1   
    39    22    43 1   
    40    23    33 1   
    41    23    34 2   
    42    23    59 1   
    43    25    26 2   
    44    25    36 1   
    45    26    27 1   
    46    27    44 1   
    47    27    45 1   
    48    29    30 2   
    49    29    31 1   
    50    30    46 1   
    51    31    32 ar  
    52    31    35 ar  
    53    32    33 ar  
    54    32    54 1   
    55    33    49 1   
    56    34    35 ar  
    57    34    50 1   
    58    35    55 1   
    59    51    59 1   
    60    52    59 1   
    61    53    59 1   
    62    56    57 1   
    63    56    58 1   
@<TRIPOS>SUBSTRUCTURE
     1 1W8         1 TEMP              0 ****  ****    0 ROOT
