@<TRIPOS>MOLECULE
1W8
   60    65     1     0     0
SMALL
bcc


@<TRIPOS>ATOM
      1 N            1.2250    -0.3210    -1.3610 n2         1 1W8      -0.260200
      2 C            3.4130    -1.4580     0.1210 c3         1 1W8      -0.135100
      3 O            2.2110    -0.8940    -1.9800 os         1 1W8      -0.211300
      4 C1           3.5080    -0.9230    -1.2780 c3         1 1W8       0.164400
      5 N1          -1.1070     1.3810    -0.6590 nc         1 1W8      -0.502100
      6 O1          -0.8310    -0.4960    -4.2290 o          1 1W8      -0.402100
      7 S1          -0.8110    -4.9050    -5.0130 ss         1 1W8      -0.256200
      8 C2           0.0590    -0.3770    -1.9590 cf         1 1W8       0.238300
      9 N2          -2.3650    -0.4610    -1.4600 nd         1 1W8      -0.785000
     10 O2           1.2320    -3.9470    -0.6840 o          1 1W8      -0.436500
     11 S2           2.6530    -6.7630    -5.8260 ss         1 1W8       0.057200
     12 C3          -1.1420     0.2240    -1.3310 cd         1 1W8       0.566700
     13 O3           2.9270    -3.5870    -2.9370 o          1 1W8      -0.762500
     14 S3           5.0800    -6.5170    -4.0750 sx         1 1W8       0.696200
     15 C4          -3.3170     0.2600    -0.8070 cc         1 1W8       0.683300
     16 N4           0.2760    -2.3940    -3.4920 ny         1 1W8      -0.676800
     17 O4           4.0720    -5.4890    -2.9030 os         1 1W8      -0.414900
     18 C5          -0.2370    -0.9910    -3.2860 c          1 1W8       0.479800
     19 N5           0.5950    -5.3360    -2.6330 nj         1 1W8      -0.237000
     20 C6          -0.3650    -3.3830    -2.5940 cy         1 1W8      -0.012500
     21 N6           4.8850    -5.4770    -6.4150 ne         1 1W8      -0.419300
     22 C7          -0.6440    -4.7780    -3.2680 cy         1 1W8       0.046800
     23 N7           9.1210    -3.2030    -8.2040 na         1 1W8      -0.032100
     24 C8           0.7000    -4.1770    -1.7460 c          1 1W8       0.686500
     25 C9           1.6990    -5.5300    -3.5120 ce         1 1W8      -0.148600
     26 C10          1.5540    -6.1330    -4.7260 c2         1 1W8      -0.069600
     27 C11          0.1860    -6.3700    -5.2550 c3         1 1W8       0.048900
     28 C12          4.1840    -6.1880    -5.4960 cf         1 1W8       0.145500
     29 C13          6.1600    -5.2600    -5.9480 ce         1 1W8      -0.020400
     30 C14          6.3800    -5.8330    -4.6330 ce         1 1W8      -0.740000
     31 C15          7.1430    -4.5600    -6.7000 cd         1 1W8       0.186000
     32 C16          8.4210    -4.2590    -6.1550 cd         1 1W8      -0.176000
     33 C17          9.3730    -3.5970    -6.9110 cc         1 1W8      -0.029300
     34 C18          7.8890    -3.4780    -8.7530 cc         1 1W8      -0.029300
     35 C19          6.9050    -4.1360    -8.0380 cd         1 1W8      -0.176000
     36 C21          2.9760    -4.8320    -3.0930 c          1 1W8       0.795800
     37 S           -2.6020     1.7220    -0.1040 ss         1 1W8       0.112700
     38 N3          -4.6180    -0.0980    -0.6360 nv         1 1W8      -0.924500
     39 C20         10.1440    -2.5420    -8.9880 c3         1 1W8      -0.014400
     40 HC1          2.8360    -2.4160     0.1380 hc         1 1W8       0.066367
     41 HC2          4.4450    -1.6580     0.5010 hc         1 1W8       0.066367
     42 HC3          2.9180    -0.7280     0.8060 hc         1 1W8       0.066367
     43 H11C         4.0600    -1.6290    -1.9630 h1         1 1W8       0.085200
     44 H12C         3.9340     0.1110    -1.3150 h1         1 1W8       0.085200
     45 H7          -1.5370    -5.2550    -2.7790 h2         1 1W8       0.137700
     46 H111         0.1840    -6.5590    -6.3610 h1         1 1W8       0.115700
     47 H112        -0.3050    -7.2370    -4.7450 h1         1 1W8       0.115700
     48 H14          7.3420    -5.7560    -4.1310 h4         1 1W8       0.181000
     49 H4           0.1020    -2.6890    -4.4740 hn         1 1W8       0.492300
     50 H6          -1.2220    -2.9380    -2.0300 hx         1 1W8       0.156700
     51 H17         10.3750    -3.3580    -6.5040 h4         1 1W8       0.187000
     52 H18          7.7270    -3.1460    -9.7970 h4         1 1W8       0.187000
     53 H201        10.7190    -3.3090    -9.5750 h1         1 1W8       0.083033
     54 H202         9.6680    -1.8130    -9.6960 h1         1 1W8       0.083033
     55 H203        10.8480    -1.9890    -8.3100 h1         1 1W8       0.083033
     56 H16          8.6670    -4.5480    -5.1210 ha         1 1W8       0.191500
     57 H19          5.9330    -4.3330    -8.5200 ha         1 1W8       0.191500
     58 H31N        -5.2560     0.5960    -0.3300 hn         1 1W8       0.448800
     59 H32N        -4.9810    -0.8840    -1.1230 hn         1 1W8       0.448800
     60 H42          1.3130    -2.4130    -3.3300 hn         1 1W8       0.492300
@<TRIPOS>BOND
     1     1     3 1   
     2     1     8 2   
     3     2     4 1   
     4     2    40 1   
     5     2    41 1   
     6     2    42 1   
     7     3     4 1   
     8     4    43 1   
     9     4    44 1   
    10     5    12 2   
    11     5    37 1   
    12     6    18 2   
    13     7    22 1   
    14     7    27 1   
    15     8    12 1   
    16     8    18 1   
    17     9    12 1   
    18     9    15 2   
    19    10    24 2   
    20    11    26 1   
    21    11    28 1   
    22    13    36 2   
    23    14    17 1   
    24    14    28 1   
    25    14    30 2   
    26    15    37 1   
    27    15    38 1   
    28    16    18 1   
    29    16    20 1   
    30    16    49 1   
    31    16    60 1   
    32    17    36 1   
    33    19    22 1   
    34    19    24 1   
    35    19    25 1   
    36    20    22 1   
    37    20    24 1   
    38    20    50 1   
    39    21    28 2   
    40    21    29 1   
    41    22    45 1   
    42    23    33 1   
    43    23    34 1   
    44    23    39 1   
    45    25    26 2   
    46    25    36 1   
    47    26    27 1   
    48    27    46 1   
    49    27    47 1   
    50    29    30 1   
    51    29    31 2   
    52    30    48 1   
    53    31    32 1   
    54    31    35 1   
    55    32    33 2   
    56    32    56 1   
    57    33    51 1   
    58    34    35 2   
    59    34    52 1   
    60    35    57 1   
    61    38    58 1   
    62    38    59 1   
    63    39    53 1   
    64    39    54 1   
    65    39    55 1   
@<TRIPOS>SUBSTRUCTURE
     1 1W8         1 TEMP              0 ****  ****    0 ROOT
