@<TRIPOS>MOLECULE
molecule
   59    63     1     0     0
SMALL
bcc


@<TRIPOS>ATOM
      1 N            0.0000     0.0000     0.0000 n2         1 1W8      -0.341200
      2 C            3.5230    -0.0000     1.1860 c3         1 1W8      -0.091100
      3 O            1.4160     0.0000     0.0000 os         1 1W8      -0.147300
      4 C1           1.9970     0.0000     1.3060 c3         1 1W8       0.136400
      5 N1          -2.7970    -0.2430    -2.2490 nc         1 1W8      -0.506100
      6 O1           1.3020     0.1100    -2.4120 o          1 1W8      -0.569100
      7 S1          -2.3780    -0.8010    -5.6430 ss         1 1W8      -0.343200
      8 C2          -0.6500     0.0010    -1.1270 cf         1 1W8       0.288300
      9 N2          -2.8190    -0.0950    -0.0050 nd         1 1W8      -0.770000
     10 O2           0.7010     2.5950    -5.4120 o          1 1W8      -0.497500
     11 S2          -4.0640     1.8330    -8.6820 ss         1 1W8       0.073100
     12 C3          -2.1270    -0.1160    -1.1310 cd         1 1W8       0.628700
     13 O3          -2.4250     3.5040    -8.6370 o          1 1W8      -0.755800
     14 S3          -5.3300     1.6830    -5.8230 ss         1 1W8      -0.147300
     15 C4          -4.1240    -0.2040    -0.1100 cc         1 1W8       0.730300
     16 N4          -0.5920     0.2320    -3.5670 ns         1 1W8      -0.549900
     17 O4          -0.3860     3.6390    -7.7580 o          1 1W8      -0.755800
     18 C5           0.0860     0.1170    -2.4080 c          1 1W8       0.560800
     19 N5          -0.8290     1.1960    -6.4580 nj         1 1W8      -0.383000
     20 C6           0.1320     0.2370    -4.8410 cy         1 1W8       0.039700
     21 N6          -6.5700     2.5040    -7.8460 nc         1 1W8      -0.742000
     22 C7          -0.6920    -0.2220    -6.0300 cy         1 1W8       0.148800
     23 N7         -11.3710     4.0310    -7.4590 na         1 1W8       0.037900
     24 C8           0.0940     1.5570    -5.5740 c          1 1W8       0.697500
     25 C9          -1.7780     1.7320    -7.3520 ce         1 1W8       0.183400
     26 C10         -2.8930     1.0340    -7.6340 c2         1 1W8      -0.273600
     27 C11         -3.2570    -0.3350    -7.1640 c3         1 1W8       0.092900
     28 C12         -5.3930     2.0490    -7.5450 cd         1 1W8       0.550700
     29 C13         -7.4490     2.5990    -6.8570 cc         1 1W8       0.383800
     30 C14         -7.0030     2.2080    -5.6490 cd         1 1W8      -0.204400
     31 C15         -8.8270     3.1020    -7.0680 ca         1 1W8       0.037500
     32 C16         -9.2590     3.5020    -8.3380 ca         1 1W8      -0.136000
     33 C17        -10.5500     3.9640    -8.4900 ca         1 1W8      -0.056300
     34 C18        -11.0030     3.6650    -6.2450 ca         1 1W8      -0.056300
     35 C19         -9.7300     3.1920    -6.0050 ca         1 1W8      -0.136000
     36 C21         -1.5580     2.9960    -7.9500 c          1 1W8       0.837800
     37 S           -4.4330    -0.3420    -1.7990 ss         1 1W8      -0.023300
     38 HC1          3.8440     0.8930     0.6640 hc         1 1W8       0.048700
     39 HC2          3.8410    -0.8760     0.6330 hc         1 1W8       0.048700
     40 HC3          3.9630    -0.0190     2.1750 hc         1 1W8       0.048700
     41 H11C         1.6770    -0.8840     1.8440 h1         1 1W8       0.034200
     42 H12C         1.6770     0.8850     1.8440 h1         1 1W8       0.034200
     43 H7          -0.1480    -0.8340    -6.7390 h2         1 1W8       0.101700
     44 H111        -4.3230    -0.3680    -6.9760 h1         1 1W8       0.069700
     45 H112        -3.0110    -1.0490    -7.9420 h1         1 1W8       0.069700
     46 H14         -7.5740     2.2140    -4.7290 h4         1 1W8       0.161000
     47 H4          -1.5850     0.3580    -3.5550 hn         1 1W8       0.367500
     48 H6           1.1200    -0.2060    -4.8110 h1         1 1W8       0.124700
     49 H17        -10.8940     4.2750    -9.4690 h4         1 1W8       0.191000
     50 H18        -11.7100     3.7370    -5.4270 h4         1 1W8       0.191000
     51 H201       -13.4450     3.7580    -7.4190 h1         1 1W8       0.084367
     52 H202       -12.8990     5.3950    -7.0300 h1         1 1W8       0.084367
     53 H203       -12.8550     4.8220    -8.7030 h1         1 1W8       0.084367
     54 H16         -8.5900     3.4490    -9.1880 ha         1 1W8       0.201500
     55 H19         -9.4350     2.8930    -5.0070 ha         1 1W8       0.201500
     56 N3          -5.0510    -0.2100     0.9160 nv         1 1W8      -0.981500
     57 H31N        -5.9730     0.1480     0.7590 hn         1 1W8       0.453300
     58 H32N        -4.8060    -0.5860     1.8100 hn         1 1W8       0.453300
     59 C20        -12.7310     4.5340    -7.6660 c3         1 1W8      -0.014400
@<TRIPOS>BOND
     1     1     3 1
     2     1     8 2
     3     2     4 1
     4     3     4 1
     5     5    12 2
     6     5    37 1
     7     6    18 2
     8     7    22 1
     9     7    27 1
    10     8    12 1
    11     8    18 1
    12     9    12 1
    13     9    15 2
    14    10    24 2
    15    11    26 1
    16    11    28 1
    17    56    15 1
    18    13    36 1
    19    14    28 1
    20    14    30 1
    21    15    37 1
    22    16    18 1
    23    16    20 1
    24    17    36 1
    25    19    22 1
    26    19    24 1
    27    19    25 1
    28    20    22 1
    29    20    24 1
    30    21    28 2
    31    21    29 1
    32    23    33 1
    33    23    34 2
    34    23    59 1
    35    25    26 2
    36    25    36 1
    37    26    27 1
    38    29    30 2
    39    29    31 1
    40    31    32 ar
    41    31    35 ar
    42    32    33 ar
    43    34    35 ar
    44     2    38 1
    45     2    39 1
    46     2    40 1
    47     4    41 1
    48     4    42 1
    49    22    43 1
    50    27    44 1
    51    27    45 1
    52    56    57 1
    53    56    58 1
    54    30    46 1
    55    16    47 1
    56    20    48 1
    57    33    49 1
    58    34    50 1
    59    59    51 1
    60    59    52 1
    61    59    53 1
    62    32    54 1
    63    35    55 1
@<TRIPOS>SUBSTRUCTURE
     1 1W8         1 TEMP              0 ****  ****    0 ROOT
