@<TRIPOS>MOLECULE
molecule
   34    34     1     0     0
SMALL
bcc


@<TRIPOS>ATOM
      1 C            0.0000     0.0000     0.0000 c          1 1W9       0.915600
      2 N            1.9950    -1.1960    -0.6910 n2         1 1W9      -0.526900
      3 O           -0.6050    -0.9060    -0.5230 o          1 1W9      -0.845800
      4 P            5.8300     0.2470    -6.1210 p5         1 1W9       1.185900
      5 N1           4.1430    -4.5190    -3.7340 nb         1 1W9      -0.719000
      6 C2           3.3880    -4.6710    -2.6650 ca         1 1W9       0.317600
      7 C3           2.9030    -3.5680    -1.9760 ca         1 1W9       0.008800
      8 O3           2.1250    -3.7290    -0.8760 oh         1 1W9      -0.468100
      9 C4           3.2300    -2.2820    -2.4380 ca         1 1W9      -0.125900
     10 C5           4.0350    -2.1770    -3.5790 ca         1 1W9      -0.143600
     11 C6           4.4720    -3.3300    -4.1990 ca         1 1W9       0.418200
     12 CA           1.5060     0.0000     0.0000 c3         1 1W9       0.012500
     13 CB           2.0170     0.0000     1.4430 c3         1 1W9       0.173400
     14 OG           1.4470    -1.1040     2.1490 oh         1 1W9      -0.574800
     15 O1P          4.6200     1.0700    -6.7910 o          1 1W9      -0.912833
     16 O2P          6.8070    -0.3060    -7.2740 o          1 1W9      -0.912833
     17 O3P          6.5910     1.1380    -5.2150 o          1 1W9      -0.912833
     18 C4A          2.7380    -1.0780    -1.7420 ce         1 1W9       0.421800
     19 C5A          4.4180    -0.8250    -4.1210 c3         1 1W9       0.249700
     20 OXT         -0.6710     1.0100     0.5770 o          1 1W9      -0.845800
     21 H1           2.6440    -4.0830    -0.1730 ho         1 1W9       0.389000
     22 H2           5.0960    -3.2570    -5.0820 h4         1 1W9       0.070100
     23 H3           1.8670     0.8850    -0.5110 h1         1 1W9       0.035700
     24 H4           3.0970    -0.0890     1.4440 h1         1 1W9       0.002200
     25 H5           1.7310     0.9250     1.9280 h1         1 1W9       0.002200
     26 H6           1.7110    -1.0700     3.0530 ho         1 1W9       0.351000
     27 H8           3.3960    -6.7860    -2.9060 hc         1 1W9       0.027033
     28 H9           1.9730    -6.1460    -2.0720 hc         1 1W9       0.027033
     29 H10          3.5260    -6.2360    -1.2290 hc         1 1W9       0.027033
     30 H12          3.0000    -0.0940    -2.1120 h4         1 1W9      -0.014200
     31 H13          3.5240    -0.2750    -4.3870 h1         1 1W9       0.039200
     32 H14          4.9690    -0.2760    -3.3660 h1         1 1W9       0.039200
     33 C2A          3.0470    -6.0570    -2.1840 c3         1 1W9      -0.123400
     34 O4P          5.2370    -0.9910    -5.2810 os         1 1W9      -0.587200
@<TRIPOS>BOND
     1     3     1 1   
     2    20     1 1   
     3     1    12 1   
     4     8     7 1   
     5    12     2 1   
     6    12    13 1   
     7    33     6 1   
     8     2    18 2   
     9     7     6 ar  
    10     7     9 ar  
    11    13    14 1   
    12     6     5 ar  
    13    18     9 1   
    14     9    10 ar  
    15     5    11 ar  
    16    10    11 ar  
    17    10    19 1   
    18    19    34 1   
    19    34     4 1   
    20    17     4 1   
    21     4    16 1   
    22     4    15 1   
    23     8    21 1   
    24    11    22 1   
    25    12    23 1   
    26    13    24 1   
    27    13    25 1   
    28    14    26 1   
    29    33    27 1   
    30    33    28 1   
    31    33    29 1   
    32    18    30 1   
    33    19    31 1   
    34    19    32 1   
@<TRIPOS>SUBSTRUCTURE
     1 1W9         1 TEMP              0 ****  ****    0 ROOT
