@<TRIPOS>MOLECULE
1W9
   34    34     1     0     0
SMALL
bcc


@<TRIPOS>ATOM
      1 C            0.0810     0.4640    -0.7470 c          1 1W9       0.926600
      2 N            2.3010    -0.7180    -0.7470 n2         1 1W9      -0.591900
      3 O           -0.4370    -0.4420    -1.4530 o          1 1W9      -0.845800
      4 P            6.5660    -5.2230     1.5970 p5         1 1W9       1.317900
      5 N1           4.4030    -4.9350    -2.7890 nb         1 1W9      -0.680000
      6 C2           3.3890    -4.1910    -3.3140 ca         1 1W9       0.292600
      7 C3           2.7270    -3.1940    -2.5610 ca         1 1W9       0.024800
      8 O3           1.7050    -2.5340    -3.2050 oh         1 1W9      -0.538100
      9 C4           3.1210    -2.9510    -1.2220 ca         1 1W9      -0.206900
     10 C5           4.1560    -3.7220    -0.6890 ca         1 1W9      -0.133600
     11 C6           4.7620    -4.7070    -1.5250 ca         1 1W9       0.356200
     12 CA           1.4680     0.2160    -0.0440 c3         1 1W9      -0.042500
     13 CB           1.1480    -0.0570     1.4330 c3         1 1W9       0.116400
     14 OG           2.2900    -0.0260     2.2710 oh         1 1W9      -0.635800
     15 O1P          6.9200    -5.8050     0.2490 o          1 1W9      -0.925833
     16 O2P          6.4690    -6.2000     2.7340 o          1 1W9      -0.925833
     17 O3P          7.2080    -3.8960     1.9030 o          1 1W9      -0.925833
     18 C4A          2.3890    -1.9590    -0.4160 ce         1 1W9       0.463800
     19 C5A          4.7000    -3.5690     0.7130 c3         1 1W9       0.250700
     20 OXT         -0.4550     1.5890    -0.5290 o          1 1W9      -0.845800
     21 H1           1.2560    -1.9390    -2.5780 ho         1 1W9       0.458000
     22 H2           5.6020    -5.3210    -1.0590 h4         1 1W9       0.148100
     23 H3           2.0280     1.1970    -0.0910 h1         1 1W9       0.062700
     24 H4           0.4920     0.7720     1.8140 h1         1 1W9       0.039200
     25 H5           0.6140    -1.0370     1.5560 h1         1 1W9       0.039200
     26 H6           2.9170    -0.6780     1.9310 ho         1 1W9       0.415000
     27 H8           1.8460    -4.5610    -4.7510 hc         1 1W9       0.018033
     28 H9           3.4490    -5.3040    -5.1850 hc         1 1W9       0.018033
     29 H10          3.1970    -3.5110    -5.3350 hc         1 1W9       0.018033
     30 H12          1.9090    -2.4070     0.4850 h4         1 1W9      -0.029200
     31 H13          3.9500    -2.9630     1.3090 h1         1 1W9       0.014700
     32 H14          5.6660    -2.9800     0.6520 h1         1 1W9       0.014700
     33 C2A          2.9550    -4.4150    -4.7240 c3         1 1W9      -0.104400
     34 O4P          4.9070    -4.7740     1.3330 os         1 1W9      -0.562200
@<TRIPOS>BOND
     1     1     3 1   
     2     1    12 1   
     3     1    20 1   
     4     2    12 1   
     5     2    18 2   
     6     4    15 1   
     7     4    16 1   
     8     4    17 1   
     9     4    34 1   
    10     5     6 ar  
    11     5    11 ar  
    12     6     7 ar  
    13     6    33 1   
    14     7     8 1   
    15     7     9 ar  
    16     8    21 1   
    17     9    10 ar  
    18     9    18 1   
    19    10    11 ar  
    20    10    19 1   
    21    11    22 1   
    22    12    13 1   
    23    12    23 1   
    24    13    14 1   
    25    13    24 1   
    26    13    25 1   
    27    14    26 1   
    28    18    30 1   
    29    19    31 1   
    30    19    32 1   
    31    19    34 1   
    32    27    33 1   
    33    28    33 1   
    34    29    33 1   
@<TRIPOS>SUBSTRUCTURE
     1 1W9         1 TEMP              0 ****  ****    0 ROOT
