@<TRIPOS>MOLECULE
1W9
   34    35     1     0     0
SMALL
bcc


@<TRIPOS>ATOM
      1 C            0.0000     0.0000     0.0000 c2         1 1W9       0.423000
      2 N            1.9950    -1.1960    -0.6910 n2         1 1W9       0.042000
      3 O           -0.6050    -0.9060    -0.5230 o          1 1W9      -0.631500
      4 P            5.8300     0.2470    -6.1210 p5         1 1W9       0.907500
      5 N1           4.1430    -4.5190    -3.7340 n2         1 1W9      -0.062000
      6 C2           3.3880    -4.6710    -2.6650 c2         1 1W9      -0.199000
      7 C3           2.9030    -3.5680    -1.9760 c2         1 1W9       0.027000
      8 O3           2.1250    -3.7290    -0.8760 oh         1 1W9      -0.192000
      9 C4           3.2300    -2.2820    -2.4380 c3         1 1W9      -0.195000
     10 C5           4.0350    -2.1770    -3.5790 c2         1 1W9       0.009000
     11 C6           4.4720    -3.3300    -4.1990 c2         1 1W9      -0.105000
     12 CA           1.5060     0.0000     0.0000 c3         1 1W9      -0.106000
     13 CB           2.0170     0.0000     1.4430 c3         1 1W9       0.092000
     14 OG           1.4470    -1.1040     2.1490 oh         1 1W9      -0.289000
     15 O1P          4.6200     1.0700    -6.7910 o          1 1W9      -0.757833
     16 O2P          6.8070    -0.3060    -7.2740 o          1 1W9      -0.757833
     17 O3P          6.5910     1.1380    -5.2150 o          1 1W9      -0.757833
     18 C4A          2.7380    -1.0780    -1.7420 c2         1 1W9      -0.363000
     19 C5A          4.4180    -0.8250    -4.1210 c3         1 1W9       0.159000
     20 OXT         -0.6710     1.0100     0.5770 o          1 1W9      -0.631500
     21 H1           2.6230    -4.1550    -0.1980 ho         1 1W9       0.163000
     22 H2           5.0960    -3.2570    -5.0820 h4         1 1W9       0.173000
     23 H3           1.8670     0.8850    -0.5110 h1         1 1W9       0.083000
     24 H4           3.0970    -0.0890     1.4440 h1         1 1W9       0.009500
     25 H5           1.7310     0.9250     1.9280 h1         1 1W9       0.009500
     26 H6           1.7150    -1.0720     3.0520 ho         1 1W9       0.137000
     27 H8           3.5250    -6.2360    -1.2290 hc         1 1W9       0.030000
     28 H9           3.3970    -6.7860    -2.9050 hc         1 1W9       0.030000
     29 H10          1.9730    -6.1460    -2.0720 hc         1 1W9       0.030000
     30 H12          3.5680    -1.6850    -1.4020 DU         1 1W9       0.306000
     31 H13          3.5240    -0.2750    -4.3870 h1         1 1W9       0.055500
     32 H14          4.9690    -0.2760    -3.3660 h1         1 1W9       0.055500
     33 C2A          3.0470    -6.0570    -2.1840 c3         1 1W9      -0.042000
     34 O4P          5.2370    -0.9910    -5.2810 os         1 1W9      -0.651000
@<TRIPOS>BOND
     1     1     3 1   
     2     1    12 1   
     3     1    20 1   
     4     2    12 1   
     5     2    18 1   
     6     4    15 1   
     7     4    16 1   
     8     4    17 1   
     9     4    34 1   
    10     5     6 1   
    11     5    11 1   
    12     6     7 1   
    13     6    33 1   
    14     7     8 1   
    15     7     9 1   
    16     8    21 1   
    17     9    10 1   
    18     9    18 1   
    19     9    30 1   
    20    10    11 1   
    21    10    19 1   
    22    11    22 1   
    23    12    13 1   
    24    12    23 1   
    25    13    14 1   
    26    13    24 1   
    27    13    25 1   
    28    14    26 1   
    29    18    30 1   
    30    19    31 1   
    31    19    32 1   
    32    19    34 1   
    33    27    33 1   
    34    28    33 1   
    35    29    33 1   
@<TRIPOS>SUBSTRUCTURE
     1 1W9         1 TEMP              0 ****  ****    0 ROOT
