@<TRIPOS>MOLECULE
1WB
   20    20     1     0     0
SMALL
bcc


@<TRIPOS>ATOM
      1 C1          0.0020   -0.0010    0.0130 ca        1 1WB     -0.130600
      2 CO1         1.4030   -0.0020   -0.0020 ca        1 1WB     -0.094000
      3 CO2        -0.6740   -0.0560    1.2350 ca        1 1WB     -0.158000
      4 CM1         2.1370   -0.0590    1.1870 ca        1 1WB     -0.130600
      5 CM2         0.0640   -0.1180    2.4250 ca        1 1WB      0.030100
      6 OM         -0.6960   -0.2030    3.5980 os        1 1WB     -0.359900
      7 CZ          1.4600   -0.1200    2.4110 ca        1 1WB     -0.158000
      8 CC         -0.8100    0.0660   -1.2650 c         1 1WB      0.905200
      9 CV          0.0120    0.0950    4.7870 c3        1 1WB      0.128700
     10 O1         -0.2130    0.1250   -2.3800 o         1 1WB     -0.858550
     11 O2         -2.0780    0.0620   -1.1800 o         1 1WB     -0.858550
     12 CCC         3.6530   -0.0550    1.2040 c         1 1WB      0.905200
     13 O11         4.2440   -0.0370    2.3300 o         1 1WB     -0.858550
     14 O22         4.2920   -0.0690    0.1120 o         1 1WB     -0.858550
     15 H1          1.9340    0.0430   -0.9680 ha        1 1WB      0.163000
     16 H2         -1.7730   -0.0560    1.2490 ha        1 1WB      0.139000
     17 H3          2.0580   -0.1650    3.3330 ha        1 1WB      0.139000
     18 H4          0.7260   -0.7300    5.0360 h1        1 1WB      0.017700
     19 H5         -0.7820    0.1670    5.5730 h1        1 1WB      0.017700
     20 H6          0.5660    1.0610    4.7010 h1        1 1WB      0.017700
@<TRIPOS>BOND
     1    1    2 ar  
     2    1    3 ar  
     3    1    8 1   
     4    2    4 ar  
     5    2   15 1   
     6    3    5 ar  
     7    3   16 1   
     8    4    7 ar  
     9    4   12 1   
    10    5    6 1   
    11    5    7 ar  
    12    6    9 1   
    13    7   17 1   
    14    8   10 1   
    15    8   11 1   
    16    9   18 1   
    17    9   19 1   
    18    9   20 1   
    19   12   13 1   
    20   12   14 1   
@<TRIPOS>SUBSTRUCTURE
     1 1WB         1 TEMP              0 ****  ****    0 ROOT
