@<TRIPOS>MOLECULE
1WB
   20    20     1     0     0
SMALL
bcc


@<TRIPOS>ATOM
      1 C1          -0.0080     0.0370    -0.0030 ca         1 1WB      -0.131100
      2 CO1          1.3900    -0.0140     0.0190 ca         1 1WB      -0.094000
      3 CO2         -0.7140     0.0660     1.2060 ca         1 1WB      -0.157500
      4 CM1          2.0940    -0.0350     1.2310 ca         1 1WB      -0.131100
      5 CM2         -0.0110     0.0470     2.4120 ca         1 1WB       0.030100
      6 OM          -0.6340     0.0440     3.6670 os         1 1WB      -0.359900
      7 CZ           1.3890    -0.0010     2.4380 ca         1 1WB      -0.157500
      8 CC          -0.7960     0.0680    -1.2960 c          1 1WB       0.905200
      9 CV          -1.9860     0.4610     3.6590 c3         1 1WB       0.128700
     10 O1          -0.1910    -0.0360    -2.4020 o          1 1WB      -0.858550
     11 O2          -2.0600     0.1970    -1.2300 o          1 1WB      -0.858550
     12 CCC          3.6080    -0.0850     1.2730 c          1 1WB       0.905200
     13 O11          4.1820    -0.1180     2.4070 o          1 1WB      -0.858550
     14 O22          4.2630    -0.0910     0.1900 o          1 1WB      -0.858550
     15 H1           1.9480    -0.0390    -0.9320 ha         1 1WB       0.163000
     16 H2          -1.8120     0.1070     1.1650 ha         1 1WB       0.139000
     17 H3           1.9400    -0.0180     3.3890 ha         1 1WB       0.139000
     18 H4          -2.6360    -0.3230     3.1960 h1         1 1WB       0.017700
     19 H5          -2.1130     1.4270     3.1110 h1         1 1WB       0.017700
     20 H6          -2.2460     0.5870     4.7400 h1         1 1WB       0.017700
@<TRIPOS>BOND
     1     1     2 ar  
     2     1     3 ar  
     3     1     8 1   
     4     2     4 ar  
     5     2    15 1   
     6     3     5 ar  
     7     3    16 1   
     8     4     7 ar  
     9     4    12 1   
    10     5     6 1   
    11     5     7 ar  
    12     6     9 1   
    13     7    17 1   
    14     8    10 1   
    15     8    11 1   
    16     9    18 1   
    17     9    19 1   
    18     9    20 1   
    19    12    13 1   
    20    12    14 1   
@<TRIPOS>SUBSTRUCTURE
     1 1WB         1 TEMP              0 ****  ****    0 ROOT
