@<TRIPOS>MOLECULE
molecule
   20    20     1     0     0
SMALL
bcc


@<TRIPOS>ATOM
      1 C1           0.0000     0.0000     0.0000 ca         1 1WB      -0.116100
      2 CO1          1.3940     0.0000     0.0000 ca         1 1WB      -0.101000
      3 CO2         -0.6960     0.0010     1.2110 ca         1 1WB      -0.162000
      4 CM1          2.0870     0.0000     1.2090 ca         1 1WB      -0.116100
      5 CM2         -0.0040     0.0010     2.4110 ca         1 1WB       0.047100
      6 OM          -0.6840     0.0010     3.5860 os         1 1WB      -0.358900
      7 CZ           1.3830     0.0000     2.4150 ca         1 1WB      -0.162000
      8 CC          -0.7400     0.0060    -1.2780 c          1 1WB       0.892200
      9 CV           0.0910     0.0010     4.7860 c3         1 1WB       0.136700
     10 O1          -0.1330     0.0060    -2.3310 o          1 1WB      -0.863050
     11 O2          -2.0870     0.0130    -1.2780 o          1 1WB      -0.863050
     12 CCC          3.5650    -0.0010     1.2160 c          1 1WB       0.892200
     13 O11          4.2330    -0.0020     2.3850 o          1 1WB      -0.863050
     14 O22          4.1750    -0.0020     0.1660 o          1 1WB      -0.863050
     15 H1           1.9360    -0.0790    -0.9350 ha         1 1WB       0.162000
     16 H2          -1.7790     0.0020     1.2110 ha         1 1WB       0.137500
     17 H3           1.9210    -0.0010     3.3560 ha         1 1WB       0.137500
     18 H4           0.7160    -0.8840     4.8130 h1         1 1WB       0.021367
     19 H5           0.7170     0.8850     4.8120 h1         1 1WB       0.021367
     20 H6          -0.5710     0.0010     5.6440 h1         1 1WB       0.021367
@<TRIPOS>BOND
     1    10     8 1
     2    14    12 1
     3     8     1 1
     4     8    11 1
     5     2     1 ar
     6     2     4 ar
     7    12    13 1
     8    12     4 1
     9     1     3 ar
    10     4     7 ar
    11     3     5 ar
    12     7     5 ar
    13     5     6 1
    14     6     9 1
    15     2    15 1
    16     3    16 1
    17     7    17 1
    18     9    18 1
    19     9    19 1
    20     9    20 1
@<TRIPOS>SUBSTRUCTURE
     1 1WB         1 TEMP              0 ****  ****    0 ROOT
