@<TRIPOS>MOLECULE
molecule
   22    23     1     0     0
SMALL
bcc


@<TRIPOS>ATOM
      1 C1           0.0000     0.0000     0.0000 c3         1 1WC      -0.032800
      2 C2           1.5070     0.0000     0.0000 cc         1 1WC      -0.040600
      3 C6           3.6470    -0.0000     0.6510 cc         1 1WC       0.358200
      4 C7           2.3130     0.0000     1.1010 cc         1 1WC      -0.280300
      5 C8           1.8650    -0.0000     2.5160 ca         1 1WC       0.013000
      6 C10          1.7250     1.0850     4.6540 ca         1 1WC      -0.128000
      7 C11          1.0280     0.0000     5.1560 ca         1 1WC      -0.124000
      8 C12          0.7520    -1.0860     4.3470 ca         1 1WC      -0.123000
      9 C13          1.1670    -1.0930     3.0290 ca         1 1WC       0.033400
     10 N3           2.3030    -0.0050    -1.0880 na         1 1WC      -0.040600
     11 N5           3.6360    -0.0030    -0.6560 nd         1 1WC      -0.513800
     12 C9           2.1440     1.0890     3.3390 ca         1 1WC      -0.111000
     13 Cl1          0.8200    -2.4580     2.0140 cl         1 1WC      -0.108400
     14 H16         -0.3610     0.5380     0.8680 hc         1 1WC       0.055700
     15 H17         -0.3610    -1.0210     0.0310 hc         1 1WC       0.055700
     16 H15         -0.3610     0.4830    -0.9000 hc         1 1WC       0.055700
     17 H18          4.5300     0.0010     1.2790 h4         1 1WC       0.052100
     18 H20          1.9400     1.9320     5.2930 ha         1 1WC       0.134000
     19 H21          0.7010     0.0010     6.1880 ha         1 1WC       0.135000
     20 H22          0.2080    -1.9340     4.7460 ha         1 1WC       0.143000
     21 H4           1.9960    -0.0070    -2.0410 hn         1 1WC       0.329700
     22 H19          2.6890     1.9390     2.9460 ha         1 1WC       0.142000
@<TRIPOS>BOND
     1     7     8 ar
     2     7     6 ar
     3     8     9 ar
     4     6    12 ar
     5     3    11 2
     6     3     4 1
     7     9    13 1
     8     9     5 ar
     9    12     5 ar
    10     5     4 1
    11    11    10 1
    12     4     2 2
    13    10     2 1
    14     2     1 1
    15     1    14 1
    16     1    15 1
    17     1    16 1
    18     3    17 1
    19     6    18 1
    20     7    19 1
    21     8    20 1
    22    10    21 1
    23    12    22 1
@<TRIPOS>SUBSTRUCTURE
     1 1WC         1 TEMP              0 ****  ****    0 ROOT
