@<TRIPOS>MOLECULE
1WC
   22    23     1     0     0
SMALL
bcc


@<TRIPOS>ATOM
      1 C1         -0.0270   -0.0510   -0.1640 c3        1 1WC     -0.038800
      2 C2          1.4360   -0.0560   -0.0150 cc        1 1WC     -0.064600
      3 C6          3.6000   -0.0330    0.6590 cd        1 1WC      0.315200
      4 C7          2.2350   -0.0470    1.1490 cd        1 1WC     -0.225300
      5 C8          1.8310   -0.0240    2.5340 ca        1 1WC      0.014000
      6 C10         1.7820    1.1610    4.6580 ca        1 1WC     -0.131000
      7 C11         1.0970    0.0980    5.2460 ca        1 1WC     -0.123000
      8 C12         0.7810   -1.0290    4.4910 ca        1 1WC     -0.129000
      9 C13         1.1490   -1.0910    3.1420 ca        1 1WC      0.024400
     10 N3          2.3360   -0.0470   -1.0910 na        1 1WC     -0.021600
     11 N5          3.6090   -0.0400   -0.6970 nc        1 1WC     -0.514800
     12 C9          2.1460    1.1000    3.3160 ca        1 1WC     -0.112000
     13 CL1         0.7610   -2.5000    2.2680 cl        1 1WC     -0.093400
     14 H16        -0.3790    0.9360   -0.5590 hc        1 1WC      0.057700
     15 H17        -0.5000   -0.2260    0.8350 hc        1 1WC      0.057700
     16 H15        -0.3660   -0.8550   -0.8630 hc        1 1WC      0.057700
     17 H18         4.5150   -0.0280    1.2520 h4        1 1WC      0.046100
     18 H20         2.0350    2.0500    5.2540 ha        1 1WC      0.136000
     19 H21         0.8080    0.1450    6.3060 ha        1 1WC      0.137000
     20 H22         0.2470   -1.8720    4.9550 ha        1 1WC      0.146000
     21 H4          2.1040   -0.0710   -2.0550 hn        1 1WC      0.320700
     22 H19         2.6860    1.9390    2.8510 ha        1 1WC      0.142000
@<TRIPOS>BOND
     1    1    2 1   
     2    1   14 1   
     3    1   15 1   
     4    1   16 1   
     5    2    4 2   
     6    2   10 1   
     7    3    4 1   
     8    3   11 2   
     9    3   17 1   
    10    4    5 1   
    11    5    9 ar  
    12    5   12 ar  
    13    6    7 ar  
    14    6   12 ar  
    15    6   18 1   
    16    7    8 ar  
    17    7   19 1   
    18    8    9 ar  
    19    8   20 1   
    20    9   13 1   
    21   10   11 1   
    22   10   21 1   
    23   12   22 1   
@<TRIPOS>SUBSTRUCTURE
     1 1WC         1 TEMP              0 ****  ****    0 ROOT
