@<TRIPOS>MOLECULE
1WC
   22    23     1     0     0
SMALL
bcc


@<TRIPOS>ATOM
      1 C1           0.0110     0.0140     0.0610 c3         1 1WC      -0.040800
      2 C2           1.4800    -0.0210     0.0080 cc         1 1WC      -0.075600
      3 C6           3.7160    -0.0520     0.3800 cd         1 1WC       0.325200
      4 C7           2.4310    -0.0170     1.0540 cd         1 1WC      -0.220300
      5 C8           2.1880    -0.0100     2.4730 ca         1 1WC       0.019000
      6 C10          1.0070    -0.9490     4.3850 ca         1 1WC      -0.129000
      7 C11          1.6720    -0.0710     5.2400 ca         1 1WC      -0.125000
      8 C12          2.5900     0.8400     4.7240 ca         1 1WC      -0.125000
      9 C13          2.8460     0.8730     3.3480 ca         1 1WC       0.024400
     10 N3           2.2220    -0.0580    -1.1810 na         1 1WC      -0.020600
     11 N5           3.5380    -0.0760    -0.9640 nc         1 1WC      -0.514800
     12 C9           1.2630    -0.9180     3.0180 ca         1 1WC      -0.122000
     13 Cl1          3.9620     2.0210     2.7720 cl         1 1WC      -0.090400
     14 H16         -0.3960     0.8510    -0.5600 hc         1 1WC       0.057033
     15 H17         -0.4230    -0.9480    -0.3120 hc         1 1WC       0.057033
     16 H15         -0.3160     0.1650     1.1210 hc         1 1WC       0.057033
     17 H18          4.7040    -0.0610     0.8410 h4         1 1WC       0.050100
     18 H20          0.2820    -1.6700     4.7900 ha         1 1WC       0.135000
     19 H21          1.4740    -0.0960     6.3220 ha         1 1WC       0.137000
     20 H22          3.1140     1.5360     5.3970 ha         1 1WC       0.146000
     21 H4           1.8610    -0.0480    -2.1040 hn         1 1WC       0.320700
     22 H19          0.7440    -1.6160     2.3430 ha         1 1WC       0.138000
@<TRIPOS>BOND
     1     1     2 1   
     2     1    14 1   
     3     1    15 1   
     4     1    16 1   
     5     2     4 2   
     6     2    10 1   
     7     3     4 1   
     8     3    11 2   
     9     3    17 1   
    10     4     5 1   
    11     5     9 ar  
    12     5    12 ar  
    13     6     7 ar  
    14     6    12 ar  
    15     6    18 1   
    16     7     8 ar  
    17     7    19 1   
    18     8     9 ar  
    19     8    20 1   
    20     9    13 1   
    21    10    11 1   
    22    10    21 1   
    23    12    22 1   
@<TRIPOS>SUBSTRUCTURE
     1 1WC         1 TEMP              0 ****  ****    0 ROOT
