@<TRIPOS>MOLECULE
1WD
   14    14     1     0     0
SMALL
bcc


@<TRIPOS>ATOM
      1 O10          0.6440     0.9530     0.1260 o          1 1WD      -0.798300
      2 C8           1.3120    -0.1100     0.1160 c          1 1WD       0.827100
      3 O9           1.4710    -0.9120     1.0680 o          1 1WD      -0.798300
      4 C3           2.0140    -0.4760    -1.2240 ca         1 1WD       0.411800
      5 N4           1.3330    -1.2250    -2.1110 nb         1 1WD      -0.652000
      6 C5           1.9340    -1.5470    -3.2750 ca         1 1WD       0.373200
      7 C6           3.2310    -1.1470    -3.6190 ca         1 1WD      -0.278300
      8 C1           3.9390    -0.3690    -2.6990 ca         1 1WD      -0.135000
      9 C2           3.3430    -0.0200    -1.4860 ca         1 1WD      -0.107400
     10 S7           4.1410     0.9190    -0.3250 sh         1 1WD      -0.183700
     11 H2           1.3320    -2.1620    -3.9650 h4         1 1WD      -0.006900
     12 H3           3.6770    -1.4330    -4.5770 ha         1 1WD       0.114000
     13 H4           4.9590    -0.0380    -2.9380 ha         1 1WD       0.107000
     14 H5           5.2800     1.1020    -0.9630 hs         1 1WD       0.128800
@<TRIPOS>BOND
     1     1     2 1   
     2     2     3 1   
     3     2     4 1   
     4     4     5 ar  
     5     4     9 ar  
     6     5     6 ar  
     7     6     7 ar  
     8     6    11 1   
     9     7     8 ar  
    10     7    12 1   
    11     8     9 ar  
    12     8    13 1   
    13     9    10 1   
    14    10    14 1   
@<TRIPOS>SUBSTRUCTURE
     1 1WD         1 TEMP              0 ****  ****    0 ROOT
