@<TRIPOS>MOLECULE
molecule
   14    14     1     0     0
SMALL
bcc


@<TRIPOS>ATOM
      1 O10          0.0000     0.0000     0.0000 o          1 1WD      -0.797300
      2 C8           1.3480     0.0000     0.0000 c          1 1WD       0.769100
      3 O9           1.9550     0.0000     1.0530 o          1 1WD      -0.797300
      4 C3           2.0850     0.0020    -1.2780 ca         1 1WD       0.446800
      5 N4           1.4170     0.0010    -2.4260 nb         1 1WD      -0.639000
      6 C5           2.0360     0.0020    -3.5850 ca         1 1WD       0.396200
      7 C6           3.4220     0.0020    -3.6580 ca         1 1WD      -0.289300
      8 C1           4.1660     0.0020    -2.4940 ca         1 1WD      -0.121000
      9 C2           3.4880     0.0070    -1.2730 ca         1 1WD      -0.076400
     10 S7           4.3800     0.0080     0.2470 sh         1 1WD      -0.242700
     11 H2           1.4550     0.0030    -4.4990 h4         1 1WD      -0.000900
     12 H3           3.9140     0.1270    -4.6160 ha         1 1WD       0.110000
     13 H4           5.2230    -0.2370    -2.5260 ha         1 1WD       0.121000
     14 H5           5.2710     0.9920     0.2370 hs         1 1WD       0.122800
@<TRIPOS>BOND
     1    10     9 1
     2     8     9 ar
     3     8     7 ar
     4     9     4 ar
     5     7     6 ar
     6     4     5 ar
     7     4     2 1
     8     6     5 ar
     9     2     3 1
    10     2     1 1
    11     6    11 1
    12     7    12 1
    13     8    13 1
    14    10    14 1
@<TRIPOS>SUBSTRUCTURE
     1 1WD         1 TEMP              0 ****  ****    0 ROOT
