@<TRIPOS>MOLECULE
1WD
   14    14     1     0     0
SMALL
bcc


@<TRIPOS>ATOM
      1 O10         0.0330   -0.0320    0.1190 o         1 1WD     -0.774800
      2 C8          1.2800    0.0260    0.0480 c         1 1WD      0.807100
      3 O9          2.0480    0.0830    1.0680 o         1 1WD     -0.774800
      4 C3          2.0130    0.0340   -1.3020 ca        1 1WD      0.349800
      5 N4          1.3490   -0.0220   -2.4690 nb        1 1WD     -0.621000
      6 C5          2.0720   -0.0100   -3.6100 ca        1 1WD      0.334200
      7 C6          3.4710    0.0560   -3.6450 ca        1 1WD     -0.248300
      8 C1          4.1600    0.1130   -2.4330 ca        1 1WD     -0.154000
      9 C2          3.4450    0.1030   -1.2320 ca        1 1WD     -0.105400
     10 S7          4.1330    0.1670    0.2950 sh        1 1WD      0.015300
     11 H2          1.4850   -0.0570   -4.5420 h4        1 1WD     -0.006900
     12 H3          4.0090    0.0620   -4.6000 ha        1 1WD      0.112000
     13 H4          5.2580    0.1660   -2.4240 ha        1 1WD      0.117000
     14 H5          5.4020    0.2200   -0.0920 hs        1 1WD     -0.050200
@<TRIPOS>BOND
     1    1    2 1   
     2    2    3 1   
     3    2    4 1   
     4    4    5 ar  
     5    4    9 ar  
     6    5    6 ar  
     7    6    7 ar  
     8    6   11 1   
     9    7    8 ar  
    10    7   12 1   
    11    8    9 ar  
    12    8   13 1   
    13    9   10 1   
    14   10   14 1   
@<TRIPOS>SUBSTRUCTURE
     1 1WD         1 TEMP              0 ****  ****    0 ROOT
