@<TRIPOS>MOLECULE
1WE
   24    24     1     0     0
SMALL
bcc


@<TRIPOS>ATOM
      1 N            0.0000     0.0000     0.0000 nz         1 1WE       0.060400
      2 CA           1.4690     0.0000     0.0000 c3         1 1WE      -0.074500
      3 C            1.9790     0.0000     1.4430 c3         1 1WE      -0.002100
      4 CB           1.9790    -1.2490    -0.7220 c3         1 1WE       0.035900
      5 CG           1.5810    -1.1870    -2.1740 ca         1 1WE      -0.178300
      6 CD1          0.3720    -1.7210    -2.5820 ca         1 1WE      -0.103000
      7 CD2          2.4210    -0.5930    -3.0970 ca         1 1WE      -0.103000
      8 CE1          0.0070    -1.6650    -3.9140 ca         1 1WE      -0.073500
      9 CE2          2.0550    -0.5370    -4.4290 ca         1 1WE      -0.073500
     10 CZ           0.8490    -1.0750    -4.8380 ca         1 1WE      -0.062000
     11 H1          -0.3340     0.2840    -0.9000 hn         1 1WE       0.228133
     12 H2          -0.3340     0.6370     0.6960 hn         1 1WE       0.228133
     13 H4           1.8300     0.8850    -0.5100 hx         1 1WE       0.093700
     14 H5           1.6530     0.9050     1.9410 hc         1 1WE       0.037700
     15 H6           1.5830    -0.8620     1.9650 hc         1 1WE       0.037700
     16 H7           3.0610    -0.0430     1.4430 hc         1 1WE       0.037700
     17 H8           3.0590    -1.2950    -0.6450 hc         1 1WE       0.054200
     18 H9           1.5470    -2.1310    -0.2660 hc         1 1WE       0.054200
     19 H10         -0.2880    -2.1830    -1.8580 ha         1 1WE       0.103000
     20 H11          3.3660    -0.1710    -2.7760 ha         1 1WE       0.103000
     21 H12         -0.9390    -2.0850    -4.2340 ha         1 1WE       0.121500
     22 H13          2.7140    -0.0730    -5.1520 ha         1 1WE       0.121500
     23 H14          0.5620    -1.0310    -5.8820 ha         1 1WE       0.123000
     24 HN3         -0.3340    -0.9220     0.1990 hn         1 1WE       0.228133
@<TRIPOS>BOND
     1     1     2 1   
     2     1    11 1   
     3     1    12 1   
     4     1    24 1   
     5     2     3 1   
     6     2     4 1   
     7     2    13 1   
     8     3    14 1   
     9     3    15 1   
    10     3    16 1   
    11     4     5 1   
    12     4    17 1   
    13     4    18 1   
    14     5     6 ar  
    15     5     7 ar  
    16     6     8 ar  
    17     6    19 1   
    18     7     9 ar  
    19     7    20 1   
    20     8    10 ar  
    21     8    21 1   
    22     9    10 ar  
    23     9    22 1   
    24    10    23 1   
@<TRIPOS>SUBSTRUCTURE
     1 1WE         1 TEMP              0 ****  ****    0 ROOT
