@<TRIPOS>MOLECULE
molecule
   24    24     1     0     0
SMALL
bcc


@<TRIPOS>ATOM
      1 N            0.0000     0.0000     0.0000 nz         1 1WE      -0.807600
      2 CA           1.4690     0.0000     0.0000 c3         1 1WE       0.103500
      3 C            1.9790     0.0000     1.4430 c3         1 1WE      -0.121100
      4 CB           1.9790    -1.2490    -0.7220 c3         1 1WE      -0.049100
      5 CG           1.5810    -1.1870    -2.1740 ca         1 1WE      -0.154300
      6 CD1          0.3720    -1.7210    -2.5820 ca         1 1WE      -0.133500
      7 CD2          2.4210    -0.5930    -3.0970 ca         1 1WE      -0.133500
      8 CE1          0.0070    -1.6650    -3.9140 ca         1 1WE      -0.106000
      9 CE2          2.0550    -0.5370    -4.4290 ca         1 1WE      -0.106000
     10 CZ           0.8490    -1.0750    -4.8380 ca         1 1WE      -0.098000
     11 H1          -0.3340     0.2840    -0.9000 hn         1 1WE       0.454800
     12 H2          -0.3340     0.6370     0.6960 hn         1 1WE       0.454800
     13 H4           1.8300     0.8850    -0.5100 hx         1 1WE       0.118700
     14 H5           1.6530     0.9050     1.9410 hc         1 1WE       0.075700
     15 H6           1.5830    -0.8620     1.9650 hc         1 1WE       0.075700
     16 H7           3.0610    -0.0430     1.4430 hc         1 1WE       0.075700
     17 H8           3.0590    -1.2950    -0.6450 hc         1 1WE       0.089200
     18 H9           1.5470    -2.1310    -0.2660 hc         1 1WE       0.089200
     19 H10         -0.2880    -2.1830    -1.8580 ha         1 1WE       0.127000
     20 H11          3.3660    -0.1710    -2.7760 ha         1 1WE       0.127000
     21 H12         -0.9390    -2.0850    -4.2340 ha         1 1WE       0.153500
     22 H13          2.7140    -0.0730    -5.1520 ha         1 1WE       0.153500
     23 H14          0.5620    -1.0310    -5.8820 ha         1 1WE       0.157000
     24 HN3         -0.3340    -0.9220     0.1990 hn         1 1WE       0.454800
@<TRIPOS>BOND
     1     3     2 1   
     2     2     1 1   
     3     2     4 1   
     4     6     8 ar  
     5     6     5 ar  
     6     8    10 ar  
     7     4     5 1   
     8     5     7 ar  
     9    10     9 ar  
    10     7     9 ar  
    11     1    11 1   
    12     1    12 1   
    13     2    13 1   
    14     3    14 1   
    15     3    15 1   
    16     3    16 1   
    17     4    17 1   
    18     4    18 1   
    19     6    19 1   
    20     7    20 1   
    21     8    21 1   
    22     9    22 1   
    23    10    23 1   
    24    24     1 1   
@<TRIPOS>SUBSTRUCTURE
     1 1WE         1 TEMP              0 ****  ****    0 ROOT
