@<TRIPOS>MOLECULE
1WE
   24    24     1     0     0
SMALL
bcc


@<TRIPOS>ATOM
      1 N           -0.0980     0.0150     0.4220 nz         1 1WE      -0.847600
      2 CA           1.3660    -0.0460     0.0470 c3         1 1WE       0.125500
      3 C            2.2260    -0.2230     1.2870 c3         1 1WE      -0.138100
      4 CB           1.6210    -1.1720    -0.9700 c3         1 1WE      -0.046100
      5 CG           2.9310    -0.9530    -1.6420 ca         1 1WE      -0.133300
      6 CD1          3.0340    -0.0380    -2.6970 ca         1 1WE      -0.118500
      7 CD2          4.0580    -1.6840    -1.2470 ca         1 1WE      -0.118500
      8 CE1          4.2520     0.1460    -3.3470 ca         1 1WE      -0.115500
      9 CE2          5.2750    -1.4980    -1.9010 ca         1 1WE      -0.115500
     10 CZ           5.3750    -0.5830    -2.9500 ca         1 1WE      -0.097000
     11 H1          -0.3830    -0.8700     0.8520 hn         1 1WE       0.457133
     12 H2          -0.2510     0.7730     1.0910 hn         1 1WE       0.457133
     13 H4           1.6030     0.9490    -0.4420 hx         1 1WE       0.116700
     14 H5           3.2940    -0.2970     0.9500 hc         1 1WE       0.083367
     15 H6           2.1360     0.6490     1.9790 hc         1 1WE       0.083367
     16 H7           1.9730    -1.1610     1.8390 hc         1 1WE       0.083367
     17 H8           1.6140    -2.1630    -0.4430 hc         1 1WE       0.070700
     18 H9           0.8110    -1.1890    -1.7500 hc         1 1WE       0.070700
     19 H10          2.1490     0.5270    -3.0260 ha         1 1WE       0.131000
     20 H11          3.9830    -2.4160    -0.4290 ha         1 1WE       0.131000
     21 H12          4.3280     0.8630    -4.1800 ha         1 1WE       0.153000
     22 H13          6.1570    -2.0800    -1.5910 ha         1 1WE       0.153000
     23 H14          6.3360    -0.4390    -3.4670 ha         1 1WE       0.155000
     24 HN3         -0.6650     0.1760    -0.4140 hn         1 1WE       0.457133
@<TRIPOS>BOND
     1     1     2 1   
     2     1    11 1   
     3     1    12 1   
     4     1    24 1   
     5     2     3 1   
     6     2     4 1   
     7     2    13 1   
     8     3    14 1   
     9     3    15 1   
    10     3    16 1   
    11     4     5 1   
    12     4    17 1   
    13     4    18 1   
    14     5     6 ar  
    15     5     7 ar  
    16     6     8 ar  
    17     6    19 1   
    18     7     9 ar  
    19     7    20 1   
    20     8    10 ar  
    21     8    21 1   
    22     9    10 ar  
    23     9    22 1   
    24    10    23 1   
@<TRIPOS>SUBSTRUCTURE
     1 1WE         1 TEMP              0 ****  ****    0 ROOT
