@<TRIPOS>MOLECULE
1WF
   27    27     1     0     0
SMALL
bcc


@<TRIPOS>ATOM
      1 C            0.0000     0.0000     0.0000 c3         1 1WF      -0.031100
      2 OH           7.6530     1.0220    -1.1240 oh         1 1WF      -0.502100
      3 CZ           6.2990     1.0770    -1.0270 ca         1 1WF       0.117100
      4 CE1          5.7050     1.6780     0.0740 ca         1 1WF      -0.140000
      5 CD1          4.3290     1.7320     0.1700 ca         1 1WF      -0.071500
      6 CE2          5.5080     0.5380    -2.0310 ca         1 1WF      -0.140000
      7 CD2          4.1310     0.5940    -1.9300 ca         1 1WF      -0.071500
      8 CG           3.5420     1.1890    -0.8290 ca         1 1WF      -0.095300
      9 CB           2.0400     1.2490    -0.7210 c3         1 1WF       0.038900
     10 CA           1.5300     0.0000     0.0000 c3         1 1WF       0.113500
     11 N            2.0200     0.0000     1.3850 n7         1 1WF      -0.584200
     12 C10          2.0830    -1.3660     1.9220 c3         1 1WF       0.176100
     13 H1          -0.3610    -0.9480     0.3800 hc         1 1WF       0.008367
     14 H2          -0.3610     0.1450    -1.0110 hc         1 1WF       0.008367
     15 H3          -0.3610     0.8030     0.6310 hc         1 1WF       0.008367
     16 H4           7.9650     0.2280    -0.7230 ho         1 1WF       0.400000
     17 H6           3.8650     2.2000     1.0300 ha         1 1WF       0.106500
     18 H7           5.9690     0.0720    -2.8930 ha         1 1WF       0.111500
     19 H8           3.5130     0.1710    -2.7130 ha         1 1WF       0.106500
     20 H9           1.6080     1.2950    -1.7140 hc         1 1WF       0.019700
     21 H10          1.7530     2.1320    -0.1620 hc         1 1WF       0.019700
     22 H11          1.8910    -0.8840    -0.5110 h1         1 1WF       0.038700
     23 H12          1.4120     0.5550     1.9550 hn         1 1WF       0.254800
     24 H14          1.0880    -1.6900     2.2020 h1         1 1WF      -0.000967
     25 H15          2.4800    -2.0330     1.1660 h1         1 1WF      -0.000967
     26 H16          2.7270    -1.3830     2.7930 h1         1 1WF      -0.000967
     27 H5           6.3210     2.1040     0.8570 ha         1 1WF       0.111500
@<TRIPOS>BOND
     1     1    10 1   
     2     1    13 1   
     3     1    14 1   
     4     1    15 1   
     5     2     3 1   
     6     2    16 1   
     7     3     4 ar  
     8     3     6 ar  
     9     4     5 ar  
    10     4    27 1   
    11     5     8 ar  
    12     5    17 1   
    13     6     7 ar  
    14     6    18 1   
    15     7     8 ar  
    16     7    19 1   
    17     8     9 1   
    18     9    10 1   
    19     9    20 1   
    20     9    21 1   
    21    10    11 1   
    22    10    22 1   
    23    11    12 1   
    24    11    23 1   
    25    12    24 1   
    26    12    25 1   
    27    12    26 1   
@<TRIPOS>SUBSTRUCTURE
     1 1WF         1 TEMP              0 ****  ****    0 ROOT
