@<TRIPOS>MOLECULE
1WF
   28    28     1     0     0
SMALL
bcc


@<TRIPOS>ATOM
      1 C            0.0210    -0.0900     0.0110 c3         1 1WF      -0.138100
      2 OH           1.3580     0.3160    -6.3260 oh         1 1WF      -0.475100
      3 CZ           1.5570     0.5170    -4.9870 ca         1 1WF       0.163100
      4 CE1          0.5570     1.2410    -4.3100 ca         1 1WF      -0.179000
      5 CD1          0.6960     1.4750    -2.9490 ca         1 1WF      -0.078000
      6 CE2          2.6840     0.0380    -4.3000 ca         1 1WF      -0.179000
      7 CD2          2.8040     0.2850    -2.9360 ca         1 1WF      -0.078000
      8 CG           1.8150     0.9980    -2.2500 ca         1 1WF      -0.175300
      9 CB           1.9680     1.2840    -0.8000 c3         1 1WF      -0.035100
     10 CA           1.5350     0.0600     0.0270 c3         1 1WF       0.125500
     11 N            2.0360     0.1560     1.4560 ny         1 1WF      -0.766000
     12 C10          3.4420    -0.2730     1.6040 c3         1 1WF       0.078100
     13 H1          -0.3040    -1.0400     0.5000 hc         1 1WF       0.081367
     14 H2          -0.3060    -0.1180    -1.0620 hc         1 1WF       0.081367
     15 H3          -0.4880     0.7740     0.5040 hc         1 1WF       0.081367
     16 H4           2.1220    -0.1620    -6.6850 ho         1 1WF       0.435000
     17 H7           3.4660    -0.5190    -4.8360 ha         1 1WF       0.161500
     18 H8           3.6950    -0.0780    -2.4000 ha         1 1WF       0.132000
     19 H9           3.0420     1.5380    -0.5880 hc         1 1WF       0.066700
     20 H10          1.3420     2.1700    -0.5100 hc         1 1WF       0.066700
     21 H11          2.0090    -0.8680    -0.4160 hx         1 1WF       0.112700
     22 H12          1.9390     1.1280     1.7710 hn         1 1WF       0.450800
     23 H14          3.7630    -0.1340     2.6720 hx         1 1WF       0.108367
     24 H15          3.5380    -1.3570     1.3230 hx         1 1WF       0.108367
     25 H16          4.0990     0.3430     0.9320 hx         1 1WF       0.108367
     26 H5          -0.3140     1.6150    -4.8700 ha         1 1WF       0.161500
     27 HN3          1.4380    -0.4310     2.0490 hn         1 1WF       0.450800
     28 H6          -0.0780     2.0520    -2.4190 ha         1 1WF       0.132000
@<TRIPOS>BOND
     1     1    10 1   
     2     1    13 1   
     3     1    14 1   
     4     1    15 1   
     5     2     3 1   
     6     2    16 1   
     7     3     4 ar  
     8     3     6 ar  
     9     4     5 ar  
    10     4    26 1   
    11     5     8 ar  
    12     5    28 1   
    13     6     7 ar  
    14     6    17 1   
    15     7     8 ar  
    16     7    18 1   
    17     8     9 1   
    18     9    10 1   
    19     9    19 1   
    20     9    20 1   
    21    10    11 1   
    22    10    21 1   
    23    11    12 1   
    24    11    22 1   
    25    11    27 1   
    26    12    23 1   
    27    12    24 1   
    28    12    25 1   
@<TRIPOS>SUBSTRUCTURE
     1 1WF         1 TEMP              0 ****  ****    0 ROOT
