@<TRIPOS>MOLECULE
1WG
   14    14     1     0     0
SMALL
bcc


@<TRIPOS>ATOM
      1 O01          0.0630    -0.3080     0.1450 o          1 1WG      -0.490600
      2 C02          1.2960    -0.2200     0.0720 c          1 1WG       0.565500
      3 C03          2.1080    -0.0970     1.3210 cc         1 1WG       0.088900
      4 O04          1.4490    -0.0860     2.5180 oh         1 1WG      -0.463600
      5 C05          3.4560     0.0020     1.3100 cd         1 1WG      -0.313700
      6 C06          4.2210    -0.0040     0.0620 c          1 1WG       0.565500
      7 O07          5.4490     0.0850     0.0210 o          1 1WG      -0.490600
      8 C08          3.3960    -0.1280    -1.1870 cc         1 1WG       0.088900
      9 O09          4.1530    -0.1280    -2.3180 oh         1 1WG      -0.463600
     10 C10          2.0460    -0.2270    -1.1750 cd         1 1WG      -0.313700
     11 H1           0.4940    -0.1650     2.3390 ho         1 1WG       0.440500
     12 H2           4.0360     0.0920     2.2430 ha         1 1WG       0.173000
     13 H3           3.5680    -0.2100    -3.0900 ho         1 1WG       0.440500
     14 H4           1.4550    -0.3170    -2.1000 ha         1 1WG       0.173000
@<TRIPOS>BOND
     1     1     2 2   
     2     2     3 1   
     3     2    10 1   
     4     3     4 1   
     5     3     5 2   
     6     4    11 1   
     7     5     6 1   
     8     5    12 1   
     9     6     7 2   
    10     6     8 1   
    11     8     9 1   
    12     8    10 2   
    13     9    13 1   
    14    10    14 1   
@<TRIPOS>SUBSTRUCTURE
     1 1WG         1 TEMP              0 ****  ****    0 ROOT
