@<TRIPOS>MOLECULE
molecule
   14    14     1     0     0
SMALL
bcc


@<TRIPOS>ATOM
      1 O01          0.0000     0.0000     0.0000 o          1 1WG      -0.471600
      2 C02          1.2150     0.0000     0.0000 c          1 1WG       0.535500
      3 C03          1.9590     0.0000     1.2860 cc         1 1WG       0.056900
      4 O04          1.2830    -0.0010     2.4570 oh         1 1WG      -0.495100
      5 C05          3.3090     0.0000     1.2860 cd         1 1WG      -0.235200
      6 C06          4.0410     0.0010     0.0150 c          1 1WG       0.535500
      7 O07          5.2570     0.0020     0.0150 o          1 1WG      -0.471600
      8 C08          3.2980     0.0010    -1.2710 cd         1 1WG       0.056900
      9 O09          3.9730     0.0020    -2.4420 oh         1 1WG      -0.495100
     10 C10          1.9480    -0.0060    -1.2710 cc         1 1WG      -0.235200
     11 H1           1.1770     0.8850     2.7600 ho         1 1WG       0.435000
     12 H2           3.8510     0.0000     2.2240 ha         1 1WG       0.174000
     13 H3           4.0770     0.8880    -2.7450 ho         1 1WG       0.435000
     14 H4           1.4060    -0.0060    -2.2090 ha         1 1WG       0.174000
@<TRIPOS>BOND
     1     1     2 2   
     2     4     3 1   
     3     2     3 1   
     4     2    10 1   
     5     3     5 2   
     6    10     8 2   
     7     5     6 1   
     8     8     6 1   
     9     8     9 1   
    10     6     7 2   
    11     4    11 1   
    12     5    12 1   
    13     9    13 1   
    14    10    14 1   
@<TRIPOS>SUBSTRUCTURE
     1 1WG         1 TEMP              0 ****  ****    0 ROOT
