@<TRIPOS>MOLECULE
1WG
   14    14     1     0     0
SMALL
bcc


@<TRIPOS>ATOM
      1 O01        -0.0550    0.1170    0.2430 o         1 1WG     -0.511100
      2 C02         1.1740    0.1200    0.0930 c         1 1WG      0.548500
      3 C03         2.0620    0.1380    1.3000 cc        1 1WG      0.082900
      4 O04         1.4730    0.1490    2.5300 oh        1 1WG     -0.472100
      5 C05         3.4130    0.1430    1.2160 cd        1 1WG     -0.281200
      6 C06         4.0820    0.1320   -0.0790 c         1 1WG      0.548500
      7 O07         5.3110    0.1360   -0.2280 o         1 1WG     -0.511100
      8 C08         3.1940    0.1150   -1.2850 cc        1 1WG      0.082900
      9 O09         3.7830    0.1030   -2.5150 oh        1 1WG     -0.472100
     10 C10         1.8430    0.1090   -1.2010 cd        1 1WG     -0.281200
     11 H1          0.5050    0.1430    2.4050 ho        1 1WG      0.452000
     12 H2          4.0510    0.1560    2.1130 ha        1 1WG      0.181000
     13 H3          4.7510    0.1090   -2.3900 ho        1 1WG      0.452000
     14 H4          1.2050    0.0960   -2.0980 ha        1 1WG      0.181000
@<TRIPOS>BOND
     1    1    2 2   
     2    2    3 1   
     3    2   10 1   
     4    3    4 1   
     5    3    5 2   
     6    4   11 1   
     7    5    6 1   
     8    5   12 1   
     9    6    7 2   
    10    6    8 1   
    11    8    9 1   
    12    8   10 2   
    13    9   13 1   
    14   10   14 1   
@<TRIPOS>SUBSTRUCTURE
     1 1WG         1 TEMP              0 ****  ****    0 ROOT
