@<TRIPOS>MOLECULE
1WH
   45    47     1     0     0
SMALL
bcc


@<TRIPOS>ATOM
      1 C            0.0560     0.3120     0.2740 c          1 1WH       0.714100
      2 C7A          1.5260     0.0210     0.1970 ca         1 1WH      -0.254900
      3 N            5.0150    -2.0540     2.1130 nz         1 1WH      -0.867600
      4 C1           4.9070    -0.6180     1.6990 c3         1 1WH       0.179100
      5 C2           2.4980    -0.1690     1.1640 cp         1 1WH       0.101000
      6 C3           3.8170    -0.4300     0.7040 ca         1 1WH      -0.319600
      7 C4           5.4870    -0.7130    -1.1680 c3         1 1WH      -0.168400
      8 C5           4.0900    -0.4730    -0.6850 ca         1 1WH       0.481600
      9 N1           3.1270    -0.2870    -1.6340 nb         1 1WH      -0.636000
     10 C3A          1.8920    -0.0500    -1.1880 ca         1 1WH       0.460600
     11 C6           0.6400     0.1820    -2.0250 c3         1 1WH       0.024700
     12 N2          -0.4300     0.3260    -1.0440 n          1 1WH      -0.469800
     13 C7          -1.7140     0.8410    -1.4170 c3         1 1WH       0.059000
     14 C8          -1.7330     2.3250    -1.8270 c3         1 1WH       0.100400
     15 O1          -3.0730     2.7530    -1.9950 os         1 1WH      -0.401600
     16 C10         -3.6390     2.4170    -3.2530 c3         1 1WH       0.106700
     17 C14          2.1920    -0.0770     2.5950 cp         1 1WH      -0.086000
     18 C15          1.9590    -1.2120     3.3880 ca         1 1WH       0.004400
     19 Cl           2.0930    -2.7850     2.7190 cl         1 1WH      -0.088400
     20 C16          1.5930    -1.0990     4.7300 ca         1 1WH      -0.108000
     21 C17          1.4800     0.1750     5.3010 ca         1 1WH       0.041400
     22 Cl1          1.0420     0.3240     6.9260 cl         1 1WH      -0.027400
     23 C18          1.7200     1.3180     4.5300 ca         1 1WH      -0.101000
     24 C19          2.0700     1.1880     3.1880 ca         1 1WH      -0.076000
     25 O2          -0.6220     0.4720     1.2940 o          1 1WH      -0.570500
     26 H1           4.0690    -2.4020     2.4050 hn         1 1WH       0.458467
     27 H2           5.3380    -2.6220     1.3260 hn         1 1WH       0.458467
     28 H4           5.9070    -0.2980     1.2840 hx         1 1WH       0.113700
     29 H5           4.6940    -0.0150     2.6320 hx         1 1WH       0.113700
     30 H6           6.1140     0.1890    -0.9500 hc         1 1WH       0.068033
     31 H7           5.9270    -1.6030    -0.6550 hc         1 1WH       0.068033
     32 H8           5.5230    -0.8970    -2.2730 hc         1 1WH       0.068033
     33 H9           0.7520     1.1030    -2.6620 h1         1 1WH       0.095700
     34 H10          0.4350    -0.7020    -2.6910 h1         1 1WH       0.095700
     35 H11         -2.1000     0.2190    -2.2750 h1         1 1WH       0.081700
     36 H12         -2.4100     0.7070    -0.5380 h1         1 1WH       0.081700
     37 H13         -1.1340     2.4950    -2.7590 h1         1 1WH       0.051700
     38 H14         -1.3420     2.9750    -0.9980 h1         1 1WH       0.051700
     39 H15         -3.0360     2.8520    -4.0870 h1         1 1WH       0.040367
     40 H16         -3.7140     1.3080    -3.3700 h1         1 1WH       0.040367
     41 H17         -4.6590     2.8770    -3.2240 h1         1 1WH       0.040367
     42 H18          1.3770    -1.9990     5.3300 ha         1 1WH       0.179000
     43 H19          1.6150     2.3220     4.9750 ha         1 1WH       0.176000
     44 H20          2.2260     2.0920     2.5770 ha         1 1WH       0.162000
     45 HN3          5.6720    -2.1510     2.8890 hn         1 1WH       0.458467
@<TRIPOS>BOND
     1     1     2 1   
     2     1    12 1   
     3     1    25 2   
     4     2     5 ar  
     5     2    10 ar  
     6     3     4 1   
     7     3    26 1   
     8     3    27 1   
     9     3    45 1   
    10     4     6 1   
    11     4    28 1   
    12     4    29 1   
    13     5     6 ar  
    14     5    17 1   
    15     6     8 ar  
    16     7     8 1   
    17     7    30 1   
    18     7    31 1   
    19     7    32 1   
    20     8     9 ar  
    21     9    10 ar  
    22    10    11 1   
    23    11    12 1   
    24    11    33 1   
    25    11    34 1   
    26    12    13 1   
    27    13    14 1   
    28    13    35 1   
    29    13    36 1   
    30    14    15 1   
    31    14    37 1   
    32    14    38 1   
    33    15    16 1   
    34    16    39 1   
    35    16    40 1   
    36    16    41 1   
    37    17    18 ar  
    38    17    24 ar  
    39    18    19 1   
    40    18    20 ar  
    41    20    21 ar  
    42    20    42 1   
    43    21    22 1   
    44    21    23 ar  
    45    23    24 ar  
    46    23    43 1   
    47    24    44 1   
@<TRIPOS>SUBSTRUCTURE
     1 1WH         1 TEMP              0 ****  ****    0 ROOT
