@<TRIPOS>MOLECULE
molecule
   45    47     1     0     0
SMALL
bcc


@<TRIPOS>ATOM
      1 C            0.0000     0.0000     0.0000 c          1 1WH       0.715100
      2 C7A          1.4710     0.0000     0.0000 ca         1 1WH      -0.260900
      3 N            5.1930    -1.3860     2.0870 nz         1 1WH      -0.810600
      4 C1           4.8470    -0.0010     1.7420 c3         1 1WH       0.168100
      5 C2           2.4270     0.0000     1.0350 cp         1 1WH       0.102000
      6 C3           3.7780    -0.0010     0.6790 ca         1 1WH      -0.328600
      7 C4           5.5790    -0.0010    -1.0450 c3         1 1WH      -0.157400
      8 C5           4.1230    -0.0010    -0.6570 ca         1 1WH       0.489600
      9 N1           3.2000    -0.0000    -1.6030 nb         1 1WH      -0.668000
     10 C3A          1.9150     0.0010    -1.3230 ca         1 1WH       0.479600
     11 C6           0.6750     0.0010    -2.1840 c3         1 1WH       0.043700
     12 N2          -0.4650    -0.0050    -1.2610 n          1 1WH      -0.483800
     13 C7          -1.8780    -0.0070    -1.6500 c3         1 1WH       0.138000
     14 C8          -2.3670    -1.4500    -1.7910 c3         1 1WH       0.112400
     15 O1          -2.3240    -2.0940    -0.5160 os         1 1WH      -0.419600
     16 C10         -2.7620    -3.4540    -0.5380 c3         1 1WH       0.126700
     17 C14          2.0110     0.0000     2.4570 cp         1 1WH      -0.091000
     18 C15          1.8110     1.2070     3.1280 ca         1 1WH       0.056400
     19 Cl           2.0470     2.7140     2.2980 cl         1 1WH      -0.067400
     20 C16          1.4240     1.2010     4.4530 ca         1 1WH      -0.103000
     21 C17          1.2350    -0.0010     5.1160 ca         1 1WH       0.053400
     22 Cl1          0.7490    -0.0010     6.7820 cl         1 1WH      -0.054400
     23 C18          1.4330    -1.2000     4.4540 ca         1 1WH      -0.118000
     24 C19          1.8160    -1.2060     3.1280 ca         1 1WH      -0.115000
     25 O2          -0.6940     0.0000     0.9970 o          1 1WH      -0.575500
     26 H1           6.1290    -1.5790     1.7900 hn         1 1WH       0.455133
     27 H2           4.5620    -2.0120     1.6280 hn         1 1WH       0.455133
     28 H4           4.4790     0.5100     2.6240 hx         1 1WH       0.116700
     29 H5           5.7270     0.5100     1.3690 hx         1 1WH       0.116700
     30 H6           5.6650     0.0500    -2.1240 hc         1 1WH       0.063367
     31 H7           6.0700     0.8580    -0.6030 hc         1 1WH       0.063367
     32 H8           6.0480    -0.9090    -0.6880 hc         1 1WH       0.063367
     33 H9           0.6540    -0.8860    -2.8050 h1         1 1WH       0.087700
     34 H10          0.6500     0.8930    -2.7980 h1         1 1WH       0.087700
     35 H11         -2.4620     0.4990    -0.8910 h1         1 1WH       0.079700
     36 H12         -1.9930     0.5080    -2.5960 h1         1 1WH       0.079700
     37 H13         -3.3850    -1.4510    -2.1630 h1         1 1WH       0.034700
     38 H14         -1.7280    -1.9810    -2.4860 h1         1 1WH       0.034700
     39 H15         -2.1170    -4.0310    -1.1890 h1         1 1WH       0.034033
     40 H16         -2.7220    -3.8620     0.4650 h1         1 1WH       0.034033
     41 H17         -3.7800    -3.5000    -0.9060 h1         1 1WH       0.034033
     42 H18          1.2680     2.1370     4.9750 ha         1 1WH       0.177000
     43 H19          1.2820    -2.1370     4.9770 ha         1 1WH       0.162000
     44 H20          1.9700    -2.1460     2.6120 ha         1 1WH       0.134000
     45 HN3          5.0990    -1.5170     3.0750 hn         1 1WH       0.455133
@<TRIPOS>BOND
     1    16    15 1   
     2    11    10 1   
     3    11    12 1   
     4     9    10 ar  
     5     9     8 ar  
     6    14    15 1   
     7    14    13 1   
     8     7     8 1   
     9    10     2 ar  
    10    13    12 1   
    11     8     6 ar  
    12    12     1 1   
    13     2     1 1   
    14     2     5 ar  
    15     1    25 2   
    16     6     5 ar  
    17     6     4 1   
    18     5    17 1   
    19     4     3 1   
    20    17    24 ar  
    21    17    18 ar  
    22    24    23 ar  
    23    19    18 1   
    24    18    20 ar  
    25    23    21 ar  
    26    20    21 ar  
    27    21    22 1   
    28     3    26 1   
    29     3    27 1   
    30     4    28 1   
    31     4    29 1   
    32     7    30 1   
    33     7    31 1   
    34     7    32 1   
    35    11    33 1   
    36    11    34 1   
    37    13    35 1   
    38    13    36 1   
    39    14    37 1   
    40    14    38 1   
    41    16    39 1   
    42    16    40 1   
    43    16    41 1   
    44    20    42 1   
    45    23    43 1   
    46    24    44 1   
    47    45     3 1   
@<TRIPOS>SUBSTRUCTURE
     1 1WH         1 TEMP              0 ****  ****    0 ROOT
