@<TRIPOS>MOLECULE
1WJ
   54    57     1     0     0
SMALL
bcc


@<TRIPOS>ATOM
      1 C1           0.2190    -0.5160     0.1270 ca         1 1WJ      -0.161600
      2 C2           1.6090    -0.4330     0.1690 ca         1 1WJ      -0.051000
      3 C3           2.1870    -0.0670     1.3810 ca         1 1WJ      -0.062200
      4 C4           1.3820     0.2200     2.5640 ca         1 1WJ       0.130400
      5 C5          -0.0190     0.1380     2.5110 ca         1 1WJ       0.030700
      6 C6          -0.8420     0.4340     3.7140 c3         1 1WJ      -0.038100
      7 C7          -1.3250    -0.8370     4.3900 c3         1 1WJ      -0.089400
      8 C8          -0.5960    -0.2340     1.2720 ca         1 1WJ       0.115400
      9 C13         -0.4150    -0.9140    -1.1420 c          1 1WJ       0.728100
     10 N9          -1.9910    -0.3300     1.1810 nc         1 1WJ      -0.531100
     11 C10         -2.5190    -0.7010     0.0330 cd         1 1WJ       0.491800
     12 N11         -4.0180    -0.8060     0.0070 nz         1 1WJ      -0.797600
     13 N12         -1.8350    -1.0040    -1.1490 ns         1 1WJ      -0.512400
     14 O14          0.1630    -1.1810    -2.2010 o          1 1WJ      -0.557500
     15 N15          3.5180     0.1300     1.7510 na         1 1WJ      -0.293300
     16 N16          2.2170     0.5630     3.6350 nc         1 1WJ      -0.616100
     17 C17          3.4990     0.4780     3.1430 cd         1 1WJ       0.658700
     18 N18          4.6760     0.6210     3.8740 nu         1 1WJ      -0.781200
     19 C19          4.5950     1.1510     5.2090 c3         1 1WJ       0.181100
     20 C20         -3.0580    -2.1000     7.0780 c3         1 1WJ       0.321900
     21 O21         -2.2420    -3.2520     7.0510 os         1 1WJ      -0.436600
     22 C22         -2.9040    -4.4100     6.5620 c3         1 1WJ       0.123700
     23 O23         -3.1350    -1.6670     5.7240 os         1 1WJ      -0.444600
     24 C24         -2.3130    -0.5120     5.5020 c3         1 1WJ       0.113100
     25 C25         -1.6380    -0.1340     6.8390 c3         1 1WJ       0.091100
     26 O26         -1.8440     1.2240     7.1660 oh         1 1WJ      -0.571800
     27 C27         -2.3130    -1.0250     7.9070 c3         1 1WJ       0.134100
     28 O28         -3.3110    -0.3560     8.6570 os         1 1WJ      -0.400600
     29 C           -2.8040     0.3540     9.7800 c3         1 1WJ       0.115700
     30 H1           2.2080    -0.6520    -0.7300 ha         1 1WJ       0.179000
     31 H2          -1.7230     1.0680     3.4220 hc         1 1WJ       0.066700
     32 H3          -0.2450     1.0350     4.4530 hc         1 1WJ       0.066700
     33 H4          -1.8350    -1.5060     3.6490 hc         1 1WJ       0.061700
     34 H5          -0.4540    -1.4090     4.8040 hc         1 1WJ       0.061700
     35 H6          -4.2890    -1.7640    -0.2350 hn         1 1WJ       0.478467
     36 H7          -4.3960    -0.1480    -0.6820 hn         1 1WJ       0.478467
     37 H8          -2.2950    -1.2810    -1.9870 hn         1 1WJ       0.347500
     38 H9           4.3090    -0.1280     1.2200 hn         1 1WJ       0.323700
     39 H11          5.4700     0.9200     3.3450 hn         1 1WJ       0.427800
     40 H12          3.9010     0.5180     5.8240 h1         1 1WJ       0.062033
     41 H13          4.2260     2.2130     5.2290 h1         1 1WJ       0.062033
     42 H14          5.6240     1.1080     5.6540 h1         1 1WJ       0.062033
     43 H16         -3.2590    -4.2430     5.5160 h1         1 1WJ       0.039033
     44 H17         -2.1210    -5.2080     6.5940 h1         1 1WJ       0.039033
     45 H18         -3.7650    -4.6750     7.2240 h1         1 1WJ       0.039033
     46 H19         -3.0160     0.3080     5.1830 h1         1 1WJ       0.062700
     47 H20         -0.5370    -0.3580     6.8010 h1         1 1WJ       0.056700
     48 H21         -1.3600     1.7400     6.5090 ho         1 1WJ       0.401000
     49 H22         -1.5430    -1.4900     8.5770 h1         1 1WJ       0.082700
     50 H23         -3.7200     0.7910    10.2530 h1         1 1WJ       0.045033
     51 H24         -2.2900    -0.3440    10.4850 h1         1 1WJ       0.045033
     52 H25         -2.1070     1.1620     9.4500 h1         1 1WJ       0.045033
     53 H113        -4.3940    -0.5740     0.9400 hn         1 1WJ       0.478467
     54 H15         -4.1030    -2.3040     7.4290 h2         1 1WJ       0.098700
@<TRIPOS>BOND
     1     1     2 ar  
     2     1     8 ar  
     3     1     9 1   
     4     2     3 ar  
     5     2    30 1   
     6     3     4 ar  
     7     3    15 1   
     8     4     5 ar  
     9     4    16 1   
    10     5     6 1   
    11     5     8 ar  
    12     6     7 1   
    13     6    31 1   
    14     6    32 1   
    15     7    24 1   
    16     7    33 1   
    17     7    34 1   
    18     8    10 1   
    19     9    13 1   
    20     9    14 2   
    21    10    11 2   
    22    11    12 1   
    23    11    13 1   
    24    12    35 1   
    25    12    36 1   
    26    12    53 1   
    27    13    37 1   
    28    15    17 1   
    29    15    38 1   
    30    16    17 2   
    31    17    18 1   
    32    18    19 1   
    33    18    39 1   
    34    19    40 1   
    35    19    41 1   
    36    19    42 1   
    37    20    21 1   
    38    20    23 1   
    39    20    27 1   
    40    20    54 1   
    41    21    22 1   
    42    22    43 1   
    43    22    44 1   
    44    22    45 1   
    45    23    24 1   
    46    24    25 1   
    47    24    46 1   
    48    25    26 1   
    49    25    27 1   
    50    25    47 1   
    51    26    48 1   
    52    27    28 1   
    53    27    49 1   
    54    28    29 1   
    55    29    50 1   
    56    29    51 1   
    57    29    52 1   
@<TRIPOS>SUBSTRUCTURE
     1 1WJ         1 TEMP              0 ****  ****    0 ROOT
