@<TRIPOS>MOLECULE
molecule
   54    57     1     0     0
SMALL
bcc


@<TRIPOS>ATOM
      1 C1           0.0000     0.0000     0.0000 ca         1 1WJ      -0.181600
      2 C2           1.3940     0.0000     0.0000 ca         1 1WJ      -0.036000
      3 C3           2.0740     0.0000     1.2000 ca         1 1WJ      -0.081200
      4 C4           1.3700    -0.0020     2.4230 ca         1 1WJ       0.163400
      5 C5          -0.0250    -0.0020     2.4280 ca         1 1WJ       0.029700
      6 C6          -0.7770    -0.0030     3.7340 c3         1 1WJ      -0.032100
      7 C7          -1.0320     1.4390     4.1770 c3         1 1WJ      -0.068400
      8 C8          -0.7160     0.0040     1.2240 ca         1 1WJ       0.114400
      9 C13         -0.7670    -0.0000    -1.2520 c          1 1WJ       0.727100
     10 N9          -2.0740     0.0040     1.1910 nc         1 1WJ      -0.532100
     11 C10         -2.7320     0.0110     0.0600 cd         1 1WJ       0.430800
     12 N11         -4.1040     0.0120     0.1010 nz         1 1WJ      -0.728600
     13 N12         -2.1170    -0.0010    -1.1600 ns         1 1WJ      -0.487400
     14 O14         -0.2090     0.0010    -2.3340 o          1 1WJ      -0.566500
     15 N15          3.4230     0.0010     1.5330 na         1 1WJ      -0.286300
     16 N16          2.2960    -0.0020     3.4140 nd         1 1WJ      -0.660100
     17 C17          3.5010    -0.0000     2.8960 cc         1 1WJ       0.713700
     18 N18          4.6720    -0.0010     3.6190 nu         1 1WJ      -0.857200
     19 C19          5.9620     0.0000     2.9260 c3         1 1WJ       0.214100
     20 C20         -1.5550     1.3850     7.7850 c3         1 1WJ       0.304900
     21 O21         -0.6000     1.3300     8.8460 os         1 1WJ      -0.411600
     22 C22         -0.2200     0.0030     9.2180 c3         1 1WJ       0.129700
     23 O23         -0.9720     0.8960     6.5570 os         1 1WJ      -0.429600
     24 C24         -1.7960     1.4380     5.5030 c3         1 1WJ       0.129100
     25 C25         -2.1040     2.8840     5.9460 c3         1 1WJ       0.119100
     26 O26         -3.4430     3.2420     5.5930 oh         1 1WJ      -0.579800
     27 C27         -1.9430     2.8480     7.4820 c3         1 1WJ       0.108100
     28 O28         -3.1750     3.1830     8.1240 os         1 1WJ      -0.398600
     29 C           -3.0180     3.7420     9.4300 c3         1 1WJ       0.122700
     30 H1           1.9350    -0.1220    -0.9300 ha         1 1WJ       0.168000
     31 H2          -1.7240    -0.5150     3.6060 hc         1 1WJ       0.075200
     32 H3          -0.1900    -0.5140     4.4880 hc         1 1WJ       0.075200
     33 H4          -1.6180     1.9500     3.4230 hc         1 1WJ       0.055200
     34 H5          -0.0860     1.9500     4.3060 hc         1 1WJ       0.055200
     35 H6          -4.4100    -0.1810     1.0340 hn         1 1WJ       0.473133
     36 H7          -4.4460     0.9080    -0.1840 hn         1 1WJ       0.473133
     37 H8          -2.6700     0.0040    -1.9940 hn         1 1WJ       0.338500
     38 H9           4.1930     0.0020     0.8940 hn         1 1WJ       0.320700
     39 H11          4.6420    -0.0230     4.6190 hn         1 1WJ       0.486800
     40 H12          6.0380     0.8840     2.3050 h1         1 1WJ       0.050033
     41 H13          6.0390    -0.8850     2.3050 h1         1 1WJ       0.050033
     42 H14          6.7630     0.0010     3.6540 h1         1 1WJ       0.050033
     43 H16         -1.1060    -0.6140     9.3130 h1         1 1WJ       0.038367
     44 H17          0.4290    -0.4130     8.4560 h1         1 1WJ       0.038367
     45 H18          0.3060     0.0290    10.1650 h1         1 1WJ       0.038367
     46 H19         -2.7140     0.8690     5.4150 h1         1 1WJ       0.062700
     47 H20         -1.3930     3.5730     5.5080 h1         1 1WJ       0.054700
     48 H21         -3.4360     4.0580     5.1200 ho         1 1WJ       0.403000
     49 H22         -1.1520     3.5200     7.7940 h1         1 1WJ       0.072700
     50 H23         -3.9180     4.2780     9.7040 h1         1 1WJ       0.038367
     51 H24         -2.8400     2.9470    10.1440 h1         1 1WJ       0.038367
     52 H25         -2.1760     4.4240     9.4320 h1         1 1WJ       0.038367
     53 H113        -4.4560    -0.6950    -0.5140 hn         1 1WJ       0.473133
     54 H15         -2.4370     0.8080     8.0350 h2         1 1WJ       0.062700
@<TRIPOS>BOND
     1    19    18 1   
     2    22    21 1   
     3    21    20 1   
     4    18    17 1   
     5    27    20 1   
     6    27    25 1   
     7    27    28 1   
     8    20    23 1   
     9    17    16 2   
    10    17    15 1   
    11    25    26 1   
    12    25    24 1   
    13    29    28 1   
    14    16     4 1   
    15    23    24 1   
    16    15     3 1   
    17    24     7 1   
    18     7     6 1   
    19     4     3 ar  
    20     4     5 ar  
    21     6     5 1   
    22     3     2 ar  
    23     5     8 ar  
    24     2     1 ar  
    25     8     1 ar  
    26     8    10 1   
    27     1     9 1   
    28    10    11 2   
    29     9    14 2   
    30     9    13 1   
    31    11    13 1   
    32    11    12 1   
    33     2    30 1   
    34     6    31 1   
    35     6    32 1   
    36     7    33 1   
    37     7    34 1   
    38    12    35 1   
    39    12    36 1   
    40    13    37 1   
    41    15    38 1   
    42    18    39 1   
    43    19    40 1   
    44    19    41 1   
    45    19    42 1   
    46    20    54 1   
    47    22    43 1   
    48    22    44 1   
    49    22    45 1   
    50    24    46 1   
    51    25    47 1   
    52    26    48 1   
    53    27    49 1   
    54    29    50 1   
    55    29    51 1   
    56    29    52 1   
    57    53    12 1   
@<TRIPOS>SUBSTRUCTURE
     1 1WJ         1 TEMP              0 ****  ****    0 ROOT
