@<TRIPOS>MOLECULE
1WK
   51    54     1     0     0
SMALL
bcc


@<TRIPOS>ATOM
      1 C1           0.1730    -0.3360     0.1360 ca         1 1WK      -0.161600
      2 C2           1.5620    -0.2840     0.0630 ca         1 1WK      -0.051000
      3 C3           2.2520    -0.0270     1.2450 ca         1 1WK      -0.062200
      4 C4           1.5580     0.1820     2.5110 ca         1 1WK       0.129400
      5 C5           0.1550     0.1350     2.5750 ca         1 1WK       0.035700
      6 C6          -0.5500     0.3570     3.8660 c3         1 1WK      -0.040100
      7 C7          -0.9510    -0.9550     4.5140 c3         1 1WK      -0.087400
      8 C8          -0.5350    -0.1300     1.3670 ca         1 1WK       0.112400
      9 C9          -0.5770    -0.6180    -1.1010 c          1 1WK       0.729100
     10 N10         -1.9340    -0.1930     1.3900 nc         1 1WK      -0.530100
     11 C11         -2.5670    -0.4540     0.2650 cd         1 1WK       0.488800
     12 N12         -4.0650    -0.5210     0.3570 nz         1 1WK      -0.796600
     13 N13         -1.9940    -0.6750    -0.9930 ns         1 1WK      -0.512400
     14 O14         -0.0970    -0.8120    -2.2230 o          1 1WK      -0.558500
     15 N15          3.6140     0.1140     1.5120 na         1 1WK      -0.293300
     16 N16          2.4900     0.4210     3.5300 nc         1 1WK      -0.612100
     17 C17          3.7230     0.3510     2.9220 cd         1 1WK       0.655700
     18 N18          4.9620     0.4140     3.5570 nu         1 1WK      -0.780200
     19 C19          5.0050     0.8440     4.9310 c3         1 1WK       0.180100
     20 C20         -0.8890    -1.5550     7.9470 c3         1 1WK       0.088100
     21 O21         -1.4740    -1.1920     9.1820 oh         1 1WK      -0.591800
     22 C22         -0.8220    -0.3410     6.9910 c3         1 1WK       0.085100
     23 O23         -1.2430     0.8430     7.6290 oh         1 1WK      -0.589800
     24 C24         -1.7310    -0.7090     5.7980 c3         1 1WK       0.114100
     25 O25         -2.4500    -1.9030     6.1430 os         1 1WK      -0.445600
     26 C26         -1.8590    -2.5470     7.2670 c3         1 1WK       0.322900
     27 O27         -1.0830    -3.5970     6.7290 os         1 1WK      -0.436600
     28 C28         -1.8470    -4.7310     6.3420 c3         1 1WK       0.122700
     29 H1           2.0760    -0.4430    -0.8990 ha         1 1WK       0.179000
     30 H2          -1.4620     0.9930     3.7010 hc         1 1WK       0.073200
     31 H3           0.1130     0.9290     4.5730 hc         1 1WK       0.073200
     32 H4          -1.5950    -1.5530     3.8180 hc         1 1WK       0.060200
     33 H5          -0.0430    -1.5740     4.7380 hc         1 1WK       0.060200
     34 H6          -4.4780     0.1980    -0.2470 hn         1 1WK       0.477800
     35 H7          -4.3840    -1.4510     0.0650 hn         1 1WK       0.477800
     36 H8          -2.5310    -0.8700    -1.8080 hn         1 1WK       0.346500
     37 H9           4.3500    -0.1140     0.8950 hn         1 1WK       0.322700
     38 H11          5.7120     0.7450     2.9860 hn         1 1WK       0.426800
     39 H12          4.6630     1.9060     5.0610 h1         1 1WK       0.062033
     40 H13          6.0680     0.7510     5.2800 h1         1 1WK       0.062033
     41 H14          4.3530     0.1760     5.5540 h1         1 1WK       0.062033
     42 H15          0.1190    -2.0200     8.1000 h1         1 1WK       0.085700
     43 H18         -2.1070     0.6710     8.0310 ho         1 1WK       0.419000
     44 H19         -2.5190     0.0780     5.6410 h1         1 1WK       0.068700
     45 H20         -2.6910    -2.9030     7.9290 h2         1 1WK       0.102700
     46 H21         -2.5990    -4.4470     5.5660 h1         1 1WK       0.039700
     47 H22         -2.3590    -5.1760     7.2310 h1         1 1WK       0.039700
     48 H23         -1.0920    -5.4420     5.9250 h1         1 1WK       0.039700
     49 H16         -0.8510    -0.5960     9.6200 ho         1 1WK       0.425000
     50 H123        -4.3570    -0.3530     1.3320 hn         1 1WK       0.477800
     51 H17          0.2300    -0.1280     6.6600 h1         1 1WK       0.100700
@<TRIPOS>BOND
     1     1     2 ar  
     2     1     8 ar  
     3     1     9 1   
     4     2     3 ar  
     5     2    29 1   
     6     3     4 ar  
     7     3    15 1   
     8     4     5 ar  
     9     4    16 1   
    10     5     6 1   
    11     5     8 ar  
    12     6     7 1   
    13     6    30 1   
    14     6    31 1   
    15     7    24 1   
    16     7    32 1   
    17     7    33 1   
    18     8    10 1   
    19     9    13 1   
    20     9    14 2   
    21    10    11 2   
    22    11    12 1   
    23    11    13 1   
    24    12    34 1   
    25    12    35 1   
    26    12    50 1   
    27    13    36 1   
    28    15    17 1   
    29    15    37 1   
    30    16    17 2   
    31    17    18 1   
    32    18    19 1   
    33    18    38 1   
    34    19    39 1   
    35    19    40 1   
    36    19    41 1   
    37    20    21 1   
    38    20    22 1   
    39    20    26 1   
    40    20    42 1   
    41    21    49 1   
    42    22    23 1   
    43    22    24 1   
    44    22    51 1   
    45    23    43 1   
    46    24    25 1   
    47    24    44 1   
    48    25    26 1   
    49    26    27 1   
    50    26    45 1   
    51    27    28 1   
    52    28    46 1   
    53    28    47 1   
    54    28    48 1   
@<TRIPOS>SUBSTRUCTURE
     1 1WK         1 TEMP              0 ****  ****    0 ROOT
