@<TRIPOS>MOLECULE
molecule
   51    54     1     0     0
SMALL
bcc


@<TRIPOS>ATOM
      1 C1           0.0000     0.0000     0.0000 ca         1 1WK      -0.174600
      2 C2           1.3930     0.0000     0.0000 ca         1 1WK      -0.032000
      3 C3           2.0740     0.0000     1.2010 ca         1 1WK      -0.088200
      4 C4           1.3700     0.0010     2.4230 ca         1 1WK       0.163400
      5 C5          -0.0250     0.0010     2.4280 ca         1 1WK       0.030700
      6 C6          -0.7780     0.0010     3.7340 c3         1 1WK      -0.027100
      7 C7          -1.0310     1.4440     4.1760 c3         1 1WK      -0.065400
      8 C8          -0.7170     0.0060     1.2240 ca         1 1WK       0.115400
      9 C9          -0.7680    -0.0010    -1.2510 c          1 1WK       0.727100
     10 N10         -2.0750     0.0070     1.1910 nc         1 1WK      -0.531100
     11 C11         -2.7310     0.0120     0.0600 cd         1 1WK       0.432800
     12 N12         -4.1040     0.0140     0.1020 nz         1 1WK      -0.728600
     13 N13         -2.1180    -0.0000    -1.1600 ns         1 1WK      -0.488400
     14 O14         -0.2100    -0.0010    -2.3330 o          1 1WK      -0.565500
     15 N15          3.4230     0.0010     1.5340 na         1 1WK      -0.286300
     16 N16          2.2970     0.0010     3.4140 nd         1 1WK      -0.661100
     17 C17          3.5000     0.0000     2.8960 cc         1 1WK       0.714700
     18 N18          4.6710     0.0010     3.6190 nu         1 1WK      -0.858200
     19 C19          5.9610    -0.0000     2.9260 c3         1 1WK       0.214100
     20 C20         -2.1400     3.0510     7.3450 c3         1 1WK       0.106100
     21 O21         -3.3980     3.3570     7.9490 oh         1 1WK      -0.575800
     22 C22         -2.2770     3.0040     5.8060 c3         1 1WK       0.110100
     23 O23         -3.6230     3.2830     5.4130 oh         1 1WK      -0.582800
     24 C24         -1.8920     1.5540     5.4390 c3         1 1WK       0.137100
     25 O25         -1.0620     1.1050     6.5320 os         1 1WK      -0.431600
     26 C26         -1.6890     1.6240     7.7250 c3         1 1WK       0.312900
     27 O27         -0.7510     1.6690     8.8020 os         1 1WK      -0.411600
     28 C28         -0.3670     0.3840     9.2920 c3         1 1WK       0.127700
     29 H1           2.0280    -0.0130    -0.8780 ha         1 1WK       0.166000
     30 H2          -0.1920    -0.5100     4.4890 hc         1 1WK       0.074200
     31 H3          -1.7250    -0.5090     3.6050 hc         1 1WK       0.074200
     32 H4          -0.0840     1.9540     4.3050 hc         1 1WK       0.052700
     33 H5          -1.6170     1.9550     3.4220 hc         1 1WK       0.052700
     34 H6          -4.4090    -0.0630     1.0520 hn         1 1WK       0.472800
     35 H7          -4.4540    -0.7620    -0.4250 hn         1 1WK       0.472800
     36 H8          -2.6710     0.0030    -1.9940 hn         1 1WK       0.338500
     37 H9           4.1930     0.0000     0.8940 hn         1 1WK       0.320700
     38 H11          4.6420     0.0260     4.6190 hn         1 1WK       0.486800
     39 H12          6.7630    -0.0140     3.6540 h1         1 1WK       0.050033
     40 H13          6.0310    -0.8780     2.2950 h1         1 1WK       0.050033
     41 H14          6.0430     0.8910     2.3150 h1         1 1WK       0.050033
     42 H15         -1.3880     3.7740     7.6350 h1         1 1WK       0.068700
     43 H18         -3.6790     4.1670     5.0900 ho         1 1WK       0.406000
     44 H19         -2.7800     0.9380     5.3650 h1         1 1WK       0.063700
     45 H20         -2.5480     1.0190     7.9900 h2         1 1WK       0.065700
     46 H21          0.6170     0.4480     9.7420 h1         1 1WK       0.039367
     47 H22         -1.0820     0.0520    10.0350 h1         1 1WK       0.039367
     48 H23         -0.3440    -0.3240     8.4720 h1         1 1WK       0.039367
     49 H16         -3.2910     4.0730     8.5530 ho         1 1WK       0.412000
     50 H123        -4.4490     0.8560    -0.3140 hn         1 1WK       0.472800
     51 H17         -1.5880     3.7030     5.3460 h1         1 1WK       0.051700
@<TRIPOS>BOND
     1    19    18 1   
     2    27    28 1   
     3    27    26 1   
     4    18    17 1   
     5    20    26 1   
     6    20    22 1   
     7    20    21 1   
     8    26    25 1   
     9    22    23 1   
    10    22    24 1   
    11    17    16 2   
    12    17    15 1   
    13    16     4 1   
    14    25    24 1   
    15    15     3 1   
    16    24     7 1   
    17     7     6 1   
    18     4     3 ar  
    19     4     5 ar  
    20     6     5 1   
    21     3     2 ar  
    22     5     8 ar  
    23     2     1 ar  
    24     8     1 ar  
    25     8    10 1   
    26     1     9 1   
    27    10    11 2   
    28     9    14 2   
    29     9    13 1   
    30    11    13 1   
    31    11    12 1   
    32     2    29 1   
    33     6    30 1   
    34     6    31 1   
    35     7    32 1   
    36     7    33 1   
    37    12    34 1   
    38    12    35 1   
    39    13    36 1   
    40    15    37 1   
    41    18    38 1   
    42    19    39 1   
    43    19    40 1   
    44    19    41 1   
    45    20    42 1   
    46    21    49 1   
    47    22    51 1   
    48    23    43 1   
    49    24    44 1   
    50    26    45 1   
    51    28    46 1   
    52    28    47 1   
    53    28    48 1   
    54    50    12 1   
@<TRIPOS>SUBSTRUCTURE
     1 1WK         1 TEMP              0 ****  ****    0 ROOT
