@<TRIPOS>MOLECULE
1WL
   53    55     1     0     0
SMALL
bcc


@<TRIPOS>ATOM
      1 O01         0.9500    1.0150    0.5150 o         1 1WL     -0.357100
      2 C02         1.4820    0.0370    0.0220 c         1 1WL      0.515100
      3 N03         1.4980   -1.2290    0.8580 n4        1 1WL     -0.435300
      4 O04         1.4600   -0.9790    2.1870 oh        1 1WL     -0.324300
      5 C05         2.1320   -0.0330   -1.3600 c3        1 1WL      0.078500
      6 N06         1.1600    0.4120   -2.4120 n4        1 1WL     -0.692800
      7 C07        -0.0670   -0.5040   -2.5060 c         1 1WL      0.620700
      8 O08        -0.2070   -1.1960   -1.4930 o         1 1WL     -0.559100
      9 C09        -0.8640   -0.4460   -3.7020 ca        1 1WL     -0.235600
     10 C10        -1.9690   -1.3310   -3.7650 ca        1 1WL     -0.034000
     11 C11        -2.7910   -1.3500   -4.8820 ca        1 1WL     -0.119000
     12 C12        -2.5400   -0.4880   -5.9680 ca        1 1WL      0.177000
     13 C13        -3.3660   -0.5090   -7.0970 cg        1 1WL     -0.146000
     14 C14        -4.0830   -0.5360   -8.0650 ch        1 1WL      0.095000
     15 C15        -4.8900   -0.5700   -9.1480 ch        1 1WL     -0.023000
     16 C16        -5.6110   -0.6050  -10.1100 cg        1 1WL     -0.033000
     17 C17        -6.4560   -0.6490  -11.2340 ca        1 1WL      0.066000
     18 C18        -6.1470    0.1010  -12.3830 ca        1 1WL     -0.074000
     19 C19        -6.9790    0.0600  -13.4990 ca        1 1WL     -0.096000
     20 C20        -8.1350   -0.7400  -13.4660 ca        1 1WL     -0.051400
     21 N21        -9.0200   -0.7800  -14.6320 n4        1 1WL     -0.705000
     22 C22        -8.4550   -1.4960  -12.3250 ca        1 1WL     -0.096000
     23 C23        -7.6150   -1.4460  -11.2160 ca        1 1WL     -0.074000
     24 C24        -1.4390    0.3990   -5.9020 ca        1 1WL     -0.119000
     25 C25        -0.6160    0.4210   -4.7900 ca        1 1WL     -0.034000
     26 C26         3.4110    0.8420   -1.3350 c3        1 1WL     -0.002100
     27 C27         3.9310    1.0040   -2.7000 cc        1 1WL     -0.355900
     28 N28         4.5430    2.1660   -3.1950 na        1 1WL     -0.281900
     29 C29         4.9430    1.8850   -4.5000 cc        1 1WL      0.468400
     30 N30         4.5950    0.6240   -4.8670 nd        1 1WL     -0.626000
     31 C31         3.9870    0.0600   -3.7610 cd        1 1WL      0.299200
     32 H1          2.3880   -1.7580    0.7160 hn        1 1WL      0.509800
     33 H2          0.6900   -0.3910    2.3960 ho        1 1WL      0.497000
     34 H3          2.4260   -1.0960   -1.6280 hx        1 1WL      0.142700
     35 H4          0.8470    1.3730   -2.2180 hn        1 1WL      0.491800
     36 H5         -2.1750   -2.0100   -2.9180 ha        1 1WL      0.155500
     37 H6         -3.6490   -2.0450   -4.9200 ha        1 1WL      0.188000
     38 H7         -5.2390    0.7280  -12.4080 ha        1 1WL      0.181000
     39 H8         -6.7130    0.6560  -14.3880 ha        1 1WL      0.171500
     40 H9         -9.7360   -0.0470  -14.5460 hn        1 1WL      0.471800
     41 H10        -8.4790   -0.6220  -15.4910 hn        1 1WL      0.471800
     42 H11        -9.3580   -2.1300  -12.2850 ha        1 1WL      0.171500
     43 H12        -7.8650   -2.0390  -10.3190 ha        1 1WL      0.181000
     44 H13        -1.2390    1.0780   -6.7500 ha        1 1WL      0.188000
     45 H14         0.2230    1.1340   -4.7860 ha        1 1WL      0.155500
     46 H15         3.1900    1.8330   -0.8510 hc        1 1WL      0.108200
     47 H16         4.1690    0.3080   -0.6930 hc        1 1WL      0.108200
     48 H17         4.7620    2.9750   -2.6660 hn        1 1WL      0.331700
     49 H18         5.4750    2.6120   -5.1360 h5        1 1WL      0.110100
     50 H20         3.6770   -0.9860   -3.7660 h4        1 1WL      0.044100
     51 H032        0.6930   -1.8330    0.5720 hn        1 1WL      0.509800
     52 H062        1.6710    0.4180   -3.3180 hn        1 1WL      0.491800
     53 H213       -9.4830   -1.6960  -14.6910 hn        1 1WL      0.471800
@<TRIPOS>BOND
     1    1    2 2   
     2    2    3 1   
     3    2    5 1   
     4    3    4 1   
     5    3   32 1   
     6    3   51 1   
     7    4   33 1   
     8    5    6 1   
     9    5   26 1   
    10    5   34 1   
    11    6    7 1   
    12    6   35 1   
    13    6   52 1   
    14    7    8 2   
    15    7    9 1   
    16    9   10 ar  
    17    9   25 ar  
    18   10   11 ar  
    19   10   36 1   
    20   11   12 ar  
    21   11   37 1   
    22   12   13 1   
    23   12   24 ar  
    24   13   14 3   
    25   14   15 1   
    26   15   16 3   
    27   16   17 1   
    28   17   18 ar  
    29   17   23 ar  
    30   18   19 ar  
    31   18   38 1   
    32   19   20 ar  
    33   19   39 1   
    34   20   21 1   
    35   20   22 ar  
    36   21   40 1   
    37   21   41 1   
    38   21   53 1   
    39   22   23 ar  
    40   22   42 1   
    41   23   43 1   
    42   24   25 ar  
    43   24   44 1   
    44   25   45 1   
    45   26   27 1   
    46   26   46 1   
    47   26   47 1   
    48   27   28 1   
    49   27   31 2   
    50   28   29 1   
    51   28   48 1   
    52   29   30 2   
    53   29   49 1   
    54   30   31 1   
    55   31   50 1   
@<TRIPOS>SUBSTRUCTURE
     1 1WL         1 TEMP              0 ****  ****    0 ROOT
