@<TRIPOS>MOLECULE
molecule
   50    52     1     0     0
SMALL
bcc


@<TRIPOS>ATOM
      1 O01          0.0000     0.0000     0.0000 o          1 1WL      -0.537100
      2 C02          1.2130     0.0000     0.0000 c          1 1WL       0.657100
      3 N03          1.8860     0.0000     1.1670 ns         1 1WL      -0.446400
      4 O04          1.1780     0.0000     2.3940 oh         1 1WL      -0.377100
      5 C05          1.9660    -0.0060    -1.3050 c3         1 1WL       0.079700
      6 N06          1.0140    -0.0110    -2.4180 ns         1 1WL      -0.544900
      7 C07          0.4990    -1.1760    -2.8590 c          1 1WL       0.668700
      8 O08          0.8240    -2.2230    -2.3320 o          1 1WL      -0.587100
      9 C09         -0.4600    -1.1810    -3.9800 ca         1 1WL      -0.118600
     10 C10         -0.9950    -2.3910    -4.4370 ca         1 1WL      -0.085000
     11 C11         -1.8820    -2.3960    -5.4740 ca         1 1WL      -0.124500
     12 C12         -2.2570    -1.1910    -6.0810 ca         1 1WL       0.049000
     13 C13         -3.1870    -1.1960    -7.1700 cg         1 1WL      -0.098000
     14 C14         -3.9440    -1.2190    -8.0670 ch         1 1WL      -0.037000
     15 C15         -4.9580    -0.7000    -9.0380 ch         1 1WL      -0.035000
     16 C16         -5.6190    -0.7660    -9.8520 cg         1 1WL      -0.091000
     17 C17         -6.8010    -0.3340   -11.0610 ca         1 1WL       0.010000
     18 C18         -7.1020    -1.3930   -11.8910 ca         1 1WL      -0.093000
     19 C19         -7.9950    -1.2990   -12.9090 ca         1 1WL      -0.126000
     20 C20         -7.8930    -0.1650   -13.3590 ca         1 1WL       0.089600
     21 N21         -8.7070     0.2710   -14.9450 nv         1 1WL      -0.991200
     22 C22         -7.5890     1.1940   -12.4920 ca         1 1WL      -0.126000
     23 C23         -6.7720     1.0000   -11.4860 ca         1 1WL      -0.093000
     24 C24         -1.7210     0.0200    -5.6230 ca         1 1WL      -0.124500
     25 C25         -0.8380     0.0240    -4.5820 ca         1 1WL      -0.085000
     26 C26          2.8460     1.2430    -1.3920 c3         1 1WL      -0.035100
     27 C27          3.6910     1.1770    -2.6380 cd         1 1WL      -0.267900
     28 N28          3.4010     1.7400    -3.8510 na         1 1WL      -0.333900
     29 C29          4.4190     1.4410    -4.6840 cd         1 1WL       0.378400
     30 N30          5.2970     0.7290    -4.0320 nc         1 1WL      -0.660000
     31 C31          4.8780     0.5560    -2.7700 cc         1 1WL       0.337200
     32 H1           2.8070     0.3870     1.2350 hn         1 1WL       0.300500
     33 H2           1.8060     0.0240     3.0970 ho         1 1WL       0.399000
     34 H3           2.5890    -0.8910    -1.3580 h1         1 1WL       0.101700
     35 H4           1.0220     0.6900    -3.1320 hn         1 1WL       0.307500
     36 H5          -0.4950    -3.3460    -4.3330 ha         1 1WL       0.143000
     37 H6          -2.2920    -3.2390    -6.0170 ha         1 1WL       0.145000
     38 H7          -6.6850    -2.3930   -11.8710 ha         1 1WL       0.157000
     39 H8          -8.2190    -2.1280   -13.5690 ha         1 1WL       0.146500
     40 H9          -9.2100    -0.5490   -15.2200 hn         1 1WL       0.443800
     41 H10         -8.7300     1.2710   -14.9360 hn         1 1WL       0.443800
     42 H11         -7.6560     2.1070   -13.0700 ha         1 1WL       0.146500
     43 H12         -5.9380     1.5260   -11.0360 ha         1 1WL       0.157000
     44 H13         -1.8990     1.0450    -5.9250 ha         1 1WL       0.145000
     45 H14         -0.4530     1.0170    -4.3850 ha         1 1WL       0.143000
     46 H15          2.2610     2.1120    -1.6660 hc         1 1WL       0.077200
     47 H16          3.6680     1.4580    -0.7200 hc         1 1WL       0.077200
     48 H17          2.7470     2.2460    -4.4140 hn         1 1WL       0.307700
     49 H18          4.3190     1.9710    -5.6240 h5         1 1WL       0.059100
     50 H20          5.1720     0.1770    -1.7990 h4         1 1WL       0.049100
@<TRIPOS>BOND
     1    30    29 2   
     2    30    31 1   
     3    29    28 1   
     4    31    27 2   
     5    28    27 1   
     6    27    26 1   
     7    26     5 1   
     8     5     2 1   
     9     5     6 1   
    10     2     1 2   
    11     2     3 1   
    12     6     7 1   
    13     3     4 1   
    14     8     7 2   
    15     7     9 1   
    16    25     9 ar  
    17    25    24 ar  
    18     9    10 ar  
    19    24    12 ar  
    20    10    11 ar  
    21    12    11 ar  
    22    12    13 1   
    23    13    14 3   
    24    14    15 1   
    25    15    16 3   
    26    18    19 ar  
    27    18    17 ar  
    28    16    17 1   
    29    19    20 ar  
    30    17    23 ar  
    31    20    21 1   
    32    20    22 ar  
    33    23    22 ar  
    34     3    32 1   
    35     4    33 1   
    36     5    34 1   
    37     6    35 1   
    38    10    36 1   
    39    11    37 1   
    40    18    38 1   
    41    19    39 1   
    42    21    40 1   
    43    21    41 1   
    44    22    42 1   
    45    23    43 1   
    46    24    44 1   
    47    25    45 1   
    48    26    46 1   
    49    26    47 1   
    50    28    48 1   
    51    29    49 1   
    52    31    50 1   
@<TRIPOS>SUBSTRUCTURE
     1 1WL         1 TEMP              0 ****  ****    0 ROOT
