@<TRIPOS>MOLECULE
1WL
   52    54     1     0     0
SMALL
bcc


@<TRIPOS>ATOM
      1 O01          0.9570    -0.0530     0.6030 o          1 1WL      -0.369100
      2 C02          2.0620    -0.1770     0.1060 c          1 1WL       0.528100
      3 N03          3.1930    -0.5570     1.0470 ny         1 1WL      -0.438300
      4 O04          2.9470    -0.2080     2.3300 oh         1 1WL      -0.333300
      5 C05          2.4180     0.0080    -1.3690 c3         1 1WL       0.082500
      6 N06          1.5950    -0.9100    -2.2160 ny         1 1WL      -0.686800
      7 C07          1.8320    -2.3990    -1.8790 c          1 1WL       0.598700
      8 O08          2.3630    -2.5280    -0.7620 o          1 1WL      -0.628100
      9 C09          1.4270    -3.3580    -2.8340 ca         1 1WL      -0.270600
     10 C10          1.6690    -4.7280    -2.5060 ca         1 1WL      -0.025500
     11 C11          1.3140    -5.7330    -3.3730 ca         1 1WL      -0.154000
     12 C12          0.6960    -5.4360    -4.6180 ca         1 1WL       0.247000
     13 C13          0.3420    -6.4370    -5.4910 cg         1 1WL      -0.267000
     14 C14          0.0310    -7.3270    -6.2590 ch         1 1WL       0.219000
     15 C15         -0.3080    -8.3020    -7.0990 ch         1 1WL      -0.213000
     16 C16         -0.6160    -9.1940    -7.8640 cg         1 1WL       0.147000
     17 C17         -0.9670   -10.2120    -8.7350 ca         1 1WL      -0.149000
     18 C18         -1.5790    -9.9210    -9.9760 ca         1 1WL      -0.002000
     19 C19         -1.9300   -10.9290   -10.8480 ca         1 1WL      -0.237000
     20 C20         -1.6830   -12.2970   -10.5170 ca         1 1WL       0.271600
     21 N21         -2.0270   -13.2970   -11.3720 nv         1 1WL      -0.846200
     22 C22         -1.0640   -12.5830    -9.2610 ca         1 1WL      -0.237000
     23 C23         -0.7190   -11.5640    -8.4010 ca         1 1WL      -0.002000
     24 C24          0.4510    -4.0660    -4.9420 ca         1 1WL      -0.154000
     25 C25          0.8040    -3.0620    -4.0790 ca         1 1WL      -0.025500
     26 C26          2.2010     1.4970    -1.7310 c3         1 1WL      -0.003100
     27 C27          2.3090     1.6790    -3.1860 cc         1 1WL      -0.350900
     28 N28          1.5180     2.5530    -3.9480 na         1 1WL      -0.287900
     29 C29          1.9780     2.4670    -5.2610 cc         1 1WL       0.461400
     30 N30          2.9940     1.5740    -5.3760 nd         1 1WL      -0.628000
     31 C31          3.2210     1.0900    -4.1010 cd         1 1WL       0.309200
     32 H1           4.0700    -0.0520     0.7950 hn         1 1WL       0.509300
     33 H2           2.0580    -0.5490     2.6010 ho         1 1WL       0.495000
     34 H3           3.5020    -0.2630    -1.5680 hx         1 1WL       0.138700
     35 H4           1.8490    -0.7280    -3.2040 hn         1 1WL       0.481800
     36 H5           2.1480    -4.9670    -1.5400 ha         1 1WL       0.143500
     37 H6           1.5060    -6.7880    -3.1110 ha         1 1WL       0.182500
     38 H7          -1.7770    -8.8720   -10.2480 ha         1 1WL       0.145000
     39 H8          -2.4050   -10.6770   -11.8080 ha         1 1WL       0.152500
     40 H9          -2.4550   -13.0900   -12.2400 hn         1 1WL       0.448300
     41 H10         -1.8520   -14.2420   -11.1350 hn         1 1WL       0.448300
     42 H11         -0.8610   -13.6270    -8.9780 ha         1 1WL       0.152500
     43 H12         -0.2420   -11.8030    -7.4360 ha         1 1WL       0.145000
     44 H13         -0.0310    -3.8320    -5.9080 ha         1 1WL       0.182500
     45 H14          0.5870    -2.0240    -4.3750 ha         1 1WL       0.143500
     46 H15          3.0040     2.0910    -1.2080 hc         1 1WL       0.102200
     47 H16          1.2060     1.8460    -1.3380 hc         1 1WL       0.102200
     48 H17          0.8520     3.1910    -3.5910 hn         1 1WL       0.326700
     49 H18          1.5510     3.0590    -6.0870 h5         1 1WL       0.105100
     50 H20          4.0340     0.3900    -3.9040 h4         1 1WL       0.046100
     51 H032         3.3590    -1.5890     0.9700 hn         1 1WL       0.509300
     52 H062         0.5970    -0.6980    -2.0990 hn         1 1WL       0.481800
@<TRIPOS>BOND
     1     1     2 2   
     2     2     3 1   
     3     2     5 1   
     4     3     4 1   
     5     3    32 1   
     6     3    51 1   
     7     4    33 1   
     8     5     6 1   
     9     5    26 1   
    10     5    34 1   
    11     6     7 1   
    12     6    35 1   
    13     6    52 1   
    14     7     8 2   
    15     7     9 1   
    16     9    10 ar  
    17     9    25 ar  
    18    10    11 ar  
    19    10    36 1   
    20    11    12 ar  
    21    11    37 1   
    22    12    13 1   
    23    12    24 ar  
    24    13    14 3   
    25    14    15 1   
    26    15    16 3   
    27    16    17 1   
    28    17    18 ar  
    29    17    23 ar  
    30    18    19 ar  
    31    18    38 1   
    32    19    20 ar  
    33    19    39 1   
    34    20    21 1   
    35    20    22 ar  
    36    21    40 1   
    37    21    41 1   
    38    22    23 ar  
    39    22    42 1   
    40    23    43 1   
    41    24    25 ar  
    42    24    44 1   
    43    25    45 1   
    44    26    27 1   
    45    26    46 1   
    46    26    47 1   
    47    27    28 1   
    48    27    31 2   
    49    28    29 1   
    50    28    48 1   
    51    29    30 2   
    52    29    49 1   
    53    30    31 1   
    54    31    50 1   
@<TRIPOS>SUBSTRUCTURE
     1 1WL         1 TEMP              0 ****  ****    0 ROOT
