@<TRIPOS>MOLECULE
1WM
   55    57     1     0     0
SMALL
bcc


@<TRIPOS>ATOM
      1 O01          0.0000     0.0000     0.0000 oh         1 1WM      -0.461100
      2 N02          1.4160     0.0000     0.0000 ns         1 1WM      -0.022400
      3 C03          2.0890     0.0000     1.1680 c          1 1WM       0.581100
      4 O04          1.4860     0.0890     2.2160 o          1 1WM      -0.594100
      5 C05          3.5910    -0.1120     1.1710 c3         1 1WM      -0.067300
      6 N06          4.1260     0.5240     2.3770 ns         1 1WM      -0.183900
      7 C07          4.3540     1.8520     2.3940 c          1 1WM       0.590700
      8 O08          4.1160     2.5230     1.4080 o          1 1WM      -0.634100
      9 C09          4.8930     2.4930     3.6090 ca         1 1WM      -0.110600
     10 C10          5.1300     3.8710     3.6270 ca         1 1WM      -0.035500
     11 C11          5.6280     4.4650     4.7500 ca         1 1WM      -0.153500
     12 C12          5.9020     3.6930     5.8860 ca         1 1WM       0.054000
     13 C13          6.4250     4.3150     7.0660 cg         1 1WM      -0.115000
     14 C14          6.8720     4.8170     8.0290 ch         1 1WM       0.003000
     15 C15          7.2470     5.2580     9.2340 ch         1 1WM      -0.055000
     16 C16          7.3940     6.0770    10.4330 cg         1 1WM      -0.034000
     17 C17          7.8180     6.4000    11.5990 ca         1 1WM      -0.025000
     18 C18          7.2040     6.3300    12.9700 ca         1 1WM      -0.045500
     19 C19          7.6200     6.6690    14.2840 ca         1 1WM      -0.145500
     20 C20          8.8150     7.1630    14.3600 ca         1 1WM       0.047600
     21 N21          9.4360     7.6120    15.5070 nv         1 1WM      -0.483200
     22 C22          9.6520     7.3400    13.1100 ca         1 1WM      -0.145500
     23 C23          9.0980     6.9510    11.8450 ca         1 1WM      -0.045500
     24 C24          5.6650     2.3130     5.8680 ca         1 1WM      -0.153500
     25 C25          5.1610     1.7220     4.7450 ca         1 1WM      -0.035500
     26 C26          3.9930    -1.5880     1.1520 c3         1 1WM       0.232400
     27 O27          3.4960    -2.2020    -0.0390 oh         1 1WM      -0.578800
     28 C29          5.4950    -1.7010     1.1850 ca         1 1WM      -0.187300
     29 C30          6.2260    -1.5330     0.0220 ca         1 1WM      -0.089000
     30 C31          7.6030    -1.6350     0.0500 ca         1 1WM      -0.159500
     31 C32          8.2530    -1.9070     1.2450 ca         1 1WM       0.197100
     32 O33          9.6090    -2.0080     1.2750 oh         1 1WM      -0.478100
     33 C34          7.5190    -2.0740     2.4090 ca         1 1WM      -0.159500
     34 C35          6.1430    -1.9660     2.3770 ca         1 1WM      -0.089000
     35 H1          -0.3960     0.0710    -0.8530 ho         1 1WM       0.401000
     36 H2           1.8870     0.3870    -0.7930 hn         1 1WM       0.146500
     37 H3           3.9920     0.3820     0.2940 h1         1 1WM       0.037700
     38 H4           5.0740     0.3940     2.6720 hn         1 1WM       0.169500
     39 H5           5.4060     4.8170     3.1770 ha         1 1WM       0.134500
     40 H6           6.2280     5.3640     4.6690 ha         1 1WM       0.125000
     41 H7           6.4100     5.5940    12.9290 ha         1 1WM       0.082000
     42 H8           6.8090     6.5420    14.9910 ha         1 1WM       0.127500
     43 H9          10.2380     7.0660    15.7510 hn         1 1WM       0.263800
     44 H10          8.9590     8.1270    16.2200 hn         1 1WM       0.263800
     45 H11         10.5750     7.8680    13.3160 ha         1 1WM       0.127500
     46 H12          9.6170     7.0280    10.8970 ha         1 1WM       0.082000
     47 H13          5.5730     2.1330     6.9320 ha         1 1WM       0.125000
     48 H14          5.2790     0.6450     4.7330 ha         1 1WM       0.134500
     49 H15          3.5740    -2.0880     2.0170 h1         1 1WM       0.056700
     50 H16          4.3730    -2.1800    -0.3850 ho         1 1WM       0.409000
     51 H17          5.8690    -1.2210    -0.9520 ha         1 1WM       0.117000
     52 H18          7.8250    -1.3410    -0.9690 ha         1 1WM       0.129500
     53 H19          9.9070    -1.4990     2.0110 ho         1 1WM       0.404000
     54 H20          7.7890    -2.2320     3.4470 ha         1 1WM       0.129500
     55 H21          5.6210    -1.6680     3.2790 ha         1 1WM       0.117000
@<TRIPOS>BOND
     1     1     2 1   
     2     1    35 1   
     3     2     3 1   
     4     2    36 1   
     5     3     4 2   
     6     3     5 1   
     7     5     6 1   
     8     5    26 1   
     9     5    37 1   
    10     6     7 1   
    11     6    38 1   
    12     7     8 2   
    13     7     9 1   
    14     9    10 ar  
    15     9    25 ar  
    16    10    11 ar  
    17    10    39 1   
    18    11    12 ar  
    19    11    40 1   
    20    12    13 1   
    21    12    24 ar  
    22    13    14 3   
    23    14    15 1   
    24    15    16 3   
    25    16    17 1   
    26    17    18 ar  
    27    17    23 ar  
    28    18    19 ar  
    29    18    41 1   
    30    19    20 ar  
    31    19    42 1   
    32    20    21 1   
    33    20    22 ar  
    34    21    43 1   
    35    21    44 1   
    36    22    23 ar  
    37    22    45 1   
    38    23    46 1   
    39    24    25 ar  
    40    24    47 1   
    41    25    48 1   
    42    26    27 1   
    43    26    28 1   
    44    26    49 1   
    45    27    50 1   
    46    28    29 ar  
    47    28    34 ar  
    48    29    30 ar  
    49    29    51 1   
    50    30    31 ar  
    51    30    52 1   
    52    31    32 1   
    53    31    33 ar  
    54    32    53 1   
    55    33    34 ar  
    56    33    54 1   
    57    34    55 1   
@<TRIPOS>SUBSTRUCTURE
     1 1WM         1 TEMP              0 ****  ****    0 ROOT
