@<TRIPOS>MOLECULE
1WM
   57    59     1     0     0
SMALL
bcc


@<TRIPOS>ATOM
      1 O01          0.6540    -0.0610    -1.2870 oh         1 1WM      -0.332300
      2 N02          1.9480    -0.1520    -0.9060 ny         1 1WM      -0.434300
      3 C03          2.1810     0.0410     0.5760 c          1 1WM       0.539100
      4 O04          1.2020     0.1640     1.2920 o          1 1WM      -0.381100
      5 C05          3.6410    -0.0170     1.0080 c3         1 1WM       0.041500
      6 N06          3.9140     0.9580     2.0950 ny         1 1WM      -0.681800
      7 C07          3.7210     2.4190     1.5920 c          1 1WM       0.602700
      8 O08          3.1620     2.4390     0.4910 o          1 1WM      -0.557100
      9 C09          4.1890     3.4580     2.4390 ca         1 1WM      -0.269600
     10 C10          4.7860     3.2640     3.7120 ca         1 1WM      -0.029000
     11 C11          5.2000     4.3390     4.4620 ca         1 1WM      -0.150500
     12 C12          5.0420     5.6710     3.9810 ca         1 1WM       0.236000
     13 C13          5.4590     6.7450     4.7400 cg         1 1WM      -0.267000
     14 C14          5.8210     7.6960     5.4010 ch         1 1WM       0.207000
     15 C15          6.2170     8.7440     6.1260 ch         1 1WM      -0.209000
     16 C16          6.5740     9.6990     6.7810 cg         1 1WM       0.135000
     17 C17          6.9810    10.7950     7.5300 ca         1 1WM      -0.144000
     18 C18          7.5700    10.6200     8.8020 ca         1 1WM      -0.007500
     19 C19          7.9760    11.7040     9.5510 ca         1 1WM      -0.236000
     20 C20          7.8100    13.0330     9.0570 ca         1 1WM       0.266600
     21 N21          8.2090    14.1090     9.7910 nv         1 1WM      -0.853200
     22 C22          7.2150    13.2010     7.7710 ca         1 1WM      -0.236000
     23 C23          6.8140    12.1070     7.0340 ca         1 1WM      -0.007500
     24 C24          4.4460     5.8640     2.7090 ca         1 1WM      -0.150500
     25 C25          4.0280     4.7890     1.9570 ca         1 1WM      -0.029000
     26 C26          3.9420    -1.5100     1.4040 c3         1 1WM       0.230400
     27 O27          3.6800    -2.1980     0.1900 oh         1 1WM      -0.657800
     28 C29          5.3330    -1.6410     1.9060 ca         1 1WM      -0.305300
     29 C30          5.5600    -2.0760     3.2190 ca         1 1WM      -0.065500
     30 C31          6.8560    -2.2610     3.6860 ca         1 1WM      -0.182000
     31 C32          7.9430    -2.0240     2.8260 ca         1 1WM       0.203100
     32 O33          9.2410    -2.1760     3.1960 oh         1 1WM      -0.453100
     33 C34          7.7240    -1.5960     1.4950 ca         1 1WM      -0.182000
     34 C35          6.4260    -1.4190     1.0490 ca         1 1WM      -0.065500
     35 H1           0.0680    -0.4320    -0.5810 ho         1 1WM       0.491000
     36 H2           2.4390     0.6110    -1.4280 hn         1 1WM       0.512300
     37 H3           4.3300     0.2510     0.1450 hx         1 1WM       0.147700
     38 H4           3.2860     0.7970     2.8900 hn         1 1WM       0.478300
     39 H5           4.9240     2.2560     4.1300 ha         1 1WM       0.142000
     40 H6           5.6620     4.1860     5.4520 ha         1 1WM       0.181000
     41 H7           7.7060     9.6010     9.2000 ha         1 1WM       0.143000
     42 H8           8.4330    11.5410    10.5400 ha         1 1WM       0.150500
     43 H9           8.0880    15.0260     9.4410 hn         1 1WM       0.446300
     44 H10          8.6190    13.9830    10.6820 hn         1 1WM       0.446300
     45 H11          7.0730    14.2130     7.3620 ha         1 1WM       0.150500
     46 H12          6.3550    12.2560     6.0430 ha         1 1WM       0.143000
     47 H13          4.3170     6.8920     2.3280 ha         1 1WM       0.181000
     48 H14          3.5620     4.9480     0.9680 ha         1 1WM       0.142000
     49 H15          3.1860    -1.8540     2.1680 h1         1 1WM       0.093700
     50 H16          4.3240    -2.9200     0.0970 ho         1 1WM       0.487000
     51 H17          4.7120    -2.2960     3.8880 ha         1 1WM       0.142000
     52 H18          7.0300    -2.6130     4.7160 ha         1 1WM       0.181000
     53 H19          9.2810    -2.5360     4.1000 ho         1 1WM       0.454000
     54 H20          8.5910    -1.4310     0.8340 ha         1 1WM       0.181000
     55 H21          6.2500    -1.1220     0.0030 ha         1 1WM       0.142000
     56 H022         2.3370    -1.0820    -1.1920 hn         1 1WM       0.512300
     57 H062         4.8860     0.8160     2.4100 hn         1 1WM       0.478300
@<TRIPOS>BOND
     1     1     2 1   
     2     1    35 1   
     3     2     3 1   
     4     2    36 1   
     5     2    56 1   
     6     3     4 2   
     7     3     5 1   
     8     5     6 1   
     9     5    26 1   
    10     5    37 1   
    11     6     7 1   
    12     6    38 1   
    13     6    57 1   
    14     7     8 2   
    15     7     9 1   
    16     9    10 ar  
    17     9    25 ar  
    18    10    11 ar  
    19    10    39 1   
    20    11    12 ar  
    21    11    40 1   
    22    12    13 1   
    23    12    24 ar  
    24    13    14 3   
    25    14    15 1   
    26    15    16 3   
    27    16    17 1   
    28    17    18 ar  
    29    17    23 ar  
    30    18    19 ar  
    31    18    41 1   
    32    19    20 ar  
    33    19    42 1   
    34    20    21 1   
    35    20    22 ar  
    36    21    43 1   
    37    21    44 1   
    38    22    23 ar  
    39    22    45 1   
    40    23    46 1   
    41    24    25 ar  
    42    24    47 1   
    43    25    48 1   
    44    26    27 1   
    45    26    28 1   
    46    26    49 1   
    47    27    50 1   
    48    28    29 ar  
    49    28    34 ar  
    50    29    30 ar  
    51    29    51 1   
    52    30    31 ar  
    53    30    52 1   
    54    31    32 1   
    55    31    33 ar  
    56    32    53 1   
    57    33    34 ar  
    58    33    54 1   
    59    34    55 1   
@<TRIPOS>SUBSTRUCTURE
     1 1WM         1 TEMP              0 ****  ****    0 ROOT
