@<TRIPOS>MOLECULE
molecule
   58    60     1     0     0
SMALL
bcc


@<TRIPOS>ATOM
      1 O01          0.0000     0.0000     0.0000 oh         1 1WN      -0.361100
      2 N02          1.4160     0.0000     0.0000 ns         1 1WN      -0.471400
      3 C03          2.0900     0.0000     1.1660 c          1 1WN       0.665100
      4 O04          1.4870     0.0940     2.2150 o          1 1WN      -0.537100
      5 C05          3.5930    -0.1170     1.1690 c3         1 1WN       0.003700
      6 N06          4.1310     0.5380     2.3640 ns         1 1WN      -0.570900
      7 C07          4.3630     1.8660     2.3590 c          1 1WN       0.655700
      8 O08          4.1250     2.5200     1.3630 o          1 1WN      -0.661100
      9 C09          4.9050     2.5240     3.5630 ca         1 1WN      -0.182600
     10 C10          5.1830     1.7690     4.7070 ca         1 1WN      -0.060500
     11 C11          5.6850     2.3770     5.8220 ca         1 1WN      -0.126500
     12 C12          5.9210     3.7590     5.8190 ca         1 1WN       0.069000
     13 C13          6.4480     4.3970     6.9870 cg         1 1WN      -0.107000
     14 C14          6.8910     4.9330     7.9340 ch         1 1WN       0.003000
     15 C15          7.1400     5.0880     9.4930 ch         1 1WN      -0.064000
     16 C16          7.2660     5.5020    10.5930 cg         1 1WN      -0.088000
     17 C17          7.6920     5.9780    12.1540 ca         1 1WN       0.007000
     18 C18          7.9760     7.3320    12.5070 ca         1 1WN      -0.084500
     19 C19          8.2510     7.2590    13.7720 ca         1 1WN      -0.129000
     20 C20          8.2670     6.2270    14.5320 ca         1 1WN       0.195600
     21 N21          9.0770     6.5120    15.8630 nv         1 1WN      -1.049200
     22 C22          7.4870     5.1200    14.4310 ca         1 1WN      -0.129000
     23 C23          7.7630     4.9850    13.1340 ca         1 1WN      -0.084500
     24 C24          5.6430     4.5130     4.6720 ca         1 1WN      -0.126500
     25 C25          5.1460     3.9020     3.5570 ca         1 1WN      -0.060500
     26 C26          3.9890    -1.5940     1.1740 c3         1 1WN       0.232100
     27 O27          3.4110    -2.2390     2.3100 oh         1 1WN      -0.569800
     28 C28          5.5130    -1.7130     1.2400 c3         1 1WN      -0.112100
     29 C29          3.4890    -2.2530    -0.0860 ca         1 1WN      -0.141300
     30 C30          2.5910    -3.3020    -0.0060 ca         1 1WN      -0.110000
     31 C31          2.1310    -3.9070    -1.1590 ca         1 1WN      -0.150000
     32 C32          2.5690    -3.4620    -2.3980 ca         1 1WN       0.109100
     33 O33          2.1170    -4.0560    -3.5340 oh         1 1WN      -0.519100
     34 C34          3.4700    -2.4090    -2.4740 ca         1 1WN      -0.150000
     35 C35          3.9230    -1.8030    -1.3190 ca         1 1WN      -0.110000
     36 H1          -0.3140    -0.0480    -0.8880 ho         1 1WN       0.395000
     37 H2           1.9160    -0.0330    -0.8660 hn         1 1WN       0.317500
     38 H3           3.9940     0.3620     0.2840 h1         1 1WN       0.069700
     39 H4           4.4160     1.4960     2.3230 hn         1 1WN       0.415500
     40 H5           5.0010     0.7010     4.7100 ha         1 1WN       0.164500
     41 H6           5.9000     1.7910     6.7080 ha         1 1WN       0.149000
     42 H7           7.9640     8.2090    11.8710 ha         1 1WN       0.143000
     43 H8           8.5010     8.1980    14.2510 ha         1 1WN       0.154000
     44 H9           8.5930     6.7970    16.6920 hn         1 1WN       0.421800
     45 H10         10.0690     6.3810    15.8830 hn         1 1WN       0.421800
     46 H11          7.5860     4.2900    15.1200 ha         1 1WN       0.154000
     47 H12          7.3410     4.0690    12.7390 ha         1 1WN       0.143000
     48 H13          5.8250     5.5810     4.6690 ha         1 1WN       0.149000
     49 H14          4.9350     4.4850     2.6690 ha         1 1WN       0.164500
     50 H15          3.4510    -3.1740     2.1950 ho         1 1WN       0.405000
     51 H16          5.9060    -0.9620     1.9150 hc         1 1WN       0.050033
     52 H17          5.9300    -1.5630     0.2510 hc         1 1WN       0.050033
     53 H18          5.7830    -2.6990     1.5990 hc         1 1WN       0.050033
     54 H19          2.2480    -3.6490     0.9610 ha         1 1WN       0.143000
     55 H20          1.4280    -4.7280    -1.0960 ha         1 1WN       0.146000
     56 H21          1.3510    -3.6030    -3.8420 ho         1 1WN       0.421000
     57 H22          3.8140    -2.0590    -3.4400 ha         1 1WN       0.146000
     58 H23          4.6220    -0.9780    -1.3790 ha         1 1WN       0.143000
@<TRIPOS>BOND
     1    33    32 1
     2    32    31 ar
     3    32    34 ar
     4    31    30 ar
     5    34    35 ar
     6    30    29 ar
     7    35    29 ar
     8    27    26 1
     9    29    26 1
    10    28    26 1
    11    26     5 1
    12     5     3 1
    13     5     6 1
    14     3     4 2
    15     3     2 1
    16     6     7 1
    17     2     1 1
    18     7     8 2
    19     7     9 1
    20    10     9 ar
    21    10    11 ar
    22     9    25 ar
    23    11    12 ar
    24    25    24 ar
    25    12    24 ar
    26    12    13 1
    27    13    14 3
    28    14    15 1
    29    18    19 ar
    30    18    17 ar
    31    15    16 3
    32    19    20 ar
    33    16    17 1
    34    17    23 ar
    35    20    21 1
    36    20    22 ar
    37    23    22 ar
    38     1    36 1
    39     2    37 1
    40     5    38 1
    41     6    39 1
    42    10    40 1
    43    11    41 1
    44    18    42 1
    45    19    43 1
    46    21    44 1
    47    21    45 1
    48    22    46 1
    49    23    47 1
    50    24    48 1
    51    25    49 1
    52    27    50 1
    53    28    51 1
    54    28    52 1
    55    28    53 1
    56    30    54 1
    57    31    55 1
    58    33    56 1
    59    34    57 1
    60    35    58 1
@<TRIPOS>SUBSTRUCTURE
     1 1WN         1 TEMP              0 ****  ****    0 ROOT
