@<TRIPOS>MOLECULE
1WN
   60    62     1     0     0
SMALL
bcc


@<TRIPOS>ATOM
      1 O01          0.2540    -0.0750    -0.4520 oh         1 1WN      -0.335300
      2 N02          1.5980    -0.2230    -0.5270 ny         1 1WN      -0.443300
      3 C03          2.1700     0.0800     0.8570 c          1 1WN       0.563100
      4 O04          1.4580     0.6010     1.6900 o          1 1WN      -0.336100
      5 C05          3.6270    -0.3490     1.0130 c3         1 1WN       0.048500
      6 N06          4.3540     0.5900     1.9070 ny         1 1WN      -0.682800
      7 C07          4.4960     1.9940     1.2570 c          1 1WN       0.604700
      8 O08          3.7960     2.0950     0.2450 o          1 1WN      -0.552100
      9 C09          5.3660     2.9160     1.9040 ca         1 1WN      -0.268600
     10 C10          6.0840     2.6550     3.0970 ca         1 1WN      -0.030500
     11 C11          6.8950     3.6180     3.6510 ca         1 1WN      -0.149500
     12 C12          7.0310     4.8980     3.0420 ca         1 1WN       0.232000
     13 C13          7.8440     5.8610     3.6060 cg         1 1WN      -0.266000
     14 C14          8.5540     6.7120     4.0970 ch         1 1WN       0.202000
     15 C15          9.3350     7.6510     4.6380 ch         1 1WN      -0.207000
     16 C16         10.0400     8.5060     5.1260 cg         1 1WN       0.131000
     17 C17         10.8490     9.4890     5.6840 ca         1 1WN      -0.142000
     18 C18         11.5620     9.2420     6.8780 ca         1 1WN      -0.008500
     19 C19         12.3660    10.2130     7.4380 ca         1 1WN      -0.235500
     20 C20         12.4950    11.4930     6.8230 ca         1 1WN       0.264600
     21 N21         13.2880    12.4570     7.3700 nv         1 1WN      -0.855200
     22 C22         11.7710    11.7350     5.6170 ca         1 1WN      -0.235500
     23 C23         10.9720    10.7540     5.0690 ca         1 1WN      -0.008500
     24 C24          6.3130     5.1580     1.8490 ca         1 1WN      -0.149500
     25 C25          5.4990     4.1940     1.2920 ca         1 1WN      -0.030500
     26 C26          3.6760    -1.8490     1.5060 c3         1 1WN       0.245100
     27 O27          3.0710    -2.5150     0.3950 oh         1 1WN      -0.663800
     28 C28          2.8210    -2.0650     2.7440 c3         1 1WN      -0.149100
     29 C29          5.1130    -2.2300     1.6830 ca         1 1WN      -0.283300
     30 C30          5.7130    -2.2240     2.9540 ca         1 1WN      -0.076500
     31 C31          7.0330    -2.6070     3.1170 ca         1 1WN      -0.179500
     32 C32          7.7790    -3.0220     1.9900 ca         1 1WN       0.197100
     33 O33          9.0690    -3.3820     2.2250 oh         1 1WN      -0.455100
     34 C34          7.1870    -3.0390     0.7140 ca         1 1WN      -0.179500
     35 C35          5.8620    -2.6470     0.5730 ca         1 1WN      -0.076500
     36 H1          -0.1340    -0.1930    -1.3520 ho         1 1WN       0.485000
     37 H2           1.8500    -1.2040    -0.7810 hn         1 1WN       0.491800
     38 H3           4.1620    -0.3240     0.0100 hx         1 1WN       0.147700
     39 H4           5.2890     0.1900     2.0930 hn         1 1WN       0.478800
     40 H5           6.0090     1.6840     3.6100 ha         1 1WN       0.142000
     41 H6           7.4520     3.4130     4.5820 ha         1 1WN       0.181000
     42 H7          11.4740     8.2580     7.3670 ha         1 1WN       0.142500
     43 H8          12.9110     9.9950     8.3700 ha         1 1WN       0.150000
     44 H9          13.3680    13.3440     6.9390 hn         1 1WN       0.445800
     45 H10         13.7820    12.2820     8.2080 hn         1 1WN       0.445800
     46 H11         11.8500    12.7130     5.1190 ha         1 1WN       0.150000
     47 H12         10.4190    10.9580     4.1380 ha         1 1WN       0.142500
     48 H13          6.4100     6.1470     1.3680 ha         1 1WN       0.181000
     49 H14          4.9400     4.4060     0.3630 ha         1 1WN       0.142000
     50 H15          3.2390    -3.4660     0.4920 ho         1 1WN       0.482000
     51 H16          1.7360    -1.9680     2.4890 hc         1 1WN       0.079033
     52 H17          2.9920    -3.0990     3.1390 hc         1 1WN       0.079033
     53 H18          3.0680    -1.3370     3.5510 hc         1 1WN       0.079033
     54 H19          5.1290    -1.9480     3.8470 ha         1 1WN       0.142500
     55 H20          7.5110    -2.6190     4.1100 ha         1 1WN       0.178000
     56 H21          9.4690    -3.7100     1.4010 ho         1 1WN       0.453000
     57 H22          7.7640    -3.3760    -0.1610 ha         1 1WN       0.178000
     58 H23          5.3940    -2.6780    -0.4250 ha         1 1WN       0.142500
     59 H022         2.0140     0.4500    -1.2000 hn         1 1WN       0.491800
     60 H062         3.8590     0.6890     2.8020 hn         1 1WN       0.478800
@<TRIPOS>BOND
     1     1     2 1   
     2     1    36 1   
     3     2     3 1   
     4     2    37 1   
     5     2    59 1   
     6     3     4 2   
     7     3     5 1   
     8     5     6 1   
     9     5    26 1   
    10     5    38 1   
    11     6     7 1   
    12     6    39 1   
    13     6    60 1   
    14     7     8 2   
    15     7     9 1   
    16     9    10 ar  
    17     9    25 ar  
    18    10    11 ar  
    19    10    40 1   
    20    11    12 ar  
    21    11    41 1   
    22    12    13 1   
    23    12    24 ar  
    24    13    14 3   
    25    14    15 1   
    26    15    16 3   
    27    16    17 1   
    28    17    18 ar  
    29    17    23 ar  
    30    18    19 ar  
    31    18    42 1   
    32    19    20 ar  
    33    19    43 1   
    34    20    21 1   
    35    20    22 ar  
    36    21    44 1   
    37    21    45 1   
    38    22    23 ar  
    39    22    46 1   
    40    23    47 1   
    41    24    25 ar  
    42    24    48 1   
    43    25    49 1   
    44    26    27 1   
    45    26    28 1   
    46    26    29 1   
    47    27    50 1   
    48    28    51 1   
    49    28    52 1   
    50    28    53 1   
    51    29    30 ar  
    52    29    35 ar  
    53    30    31 ar  
    54    30    54 1   
    55    31    32 ar  
    56    31    55 1   
    57    32    33 1   
    58    32    34 ar  
    59    33    56 1   
    60    34    35 ar  
    61    34    57 1   
    62    35    58 1   
@<TRIPOS>SUBSTRUCTURE
     1 1WN         1 TEMP              0 ****  ****    0 ROOT
