@<TRIPOS>MOLECULE
1WN
   58    60     1     0     0
SMALL
bcc


@<TRIPOS>ATOM
      1 O01          0.0000     0.0000     0.0000 oh         1 1WN      -0.436100
      2 N02          1.4160     0.0000     0.0000 ns         1 1WN      -0.062400
      3 C03          2.0900     0.0000     1.1660 c          1 1WN       0.566100
      4 O04          1.4870     0.0940     2.2150 o          1 1WN      -0.581100
      5 C05          3.5930    -0.1170     1.1690 c3         1 1WN       0.009700
      6 N06          4.1310     0.5380     2.3640 ns         1 1WN      -0.474900
      7 C07          4.3630     1.8660     2.3590 c          1 1WN       0.847700
      8 O08          4.1250     2.5200     1.3630 o          1 1WN      -0.703100
      9 C09          4.9050     2.5240     3.5630 ca         1 1WN      -0.203600
     10 C10          5.1830     1.7690     4.7070 ca         1 1WN      -0.028000
     11 C11          5.6850     2.3770     5.8220 ca         1 1WN      -0.111500
     12 C12          5.9210     3.7590     5.8190 ca         1 1WN       0.094000
     13 C13          6.4480     4.3970     6.9870 cg         1 1WN      -0.121000
     14 C14          6.8910     4.9330     7.9340 ch         1 1WN       0.020000
     15 C15          7.1400     5.0880     9.4930 ch         1 1WN      -0.043000
     16 C16          7.2660     5.5020    10.5930 cg         1 1WN      -0.104000
     17 C17          7.6920     5.9780    12.1540 ca         1 1WN       0.044000
     18 C18          7.9760     7.3320    12.5070 ca         1 1WN      -0.066000
     19 C19          8.2510     7.2590    13.7720 ca         1 1WN      -0.105000
     20 C20          8.2670     6.2270    14.5320 ca         1 1WN       0.080600
     21 N21          9.0770     6.5120    15.8630 nv         1 1WN      -0.656200
     22 C22          7.4870     5.1200    14.4310 ca         1 1WN      -0.105000
     23 C23          7.7630     4.9850    13.1340 ca         1 1WN      -0.066000
     24 C24          5.6430     4.5130     4.6720 ca         1 1WN      -0.111500
     25 C25          5.1460     3.9020     3.5570 ca         1 1WN      -0.028000
     26 C26          3.9890    -1.5940     1.1740 c3         1 1WN       0.249100
     27 O27          3.4110    -2.2390     2.3100 oh         1 1WN      -0.558800
     28 C28          5.5130    -1.7130     1.2400 c3         1 1WN      -0.035100
     29 C29          3.4890    -2.2530    -0.0860 ca         1 1WN      -0.165300
     30 C30          2.5910    -3.3020    -0.0060 ca         1 1WN      -0.078500
     31 C31          2.1310    -3.9070    -1.1590 ca         1 1WN      -0.134500
     32 C32          2.5690    -3.4620    -2.3980 ca         1 1WN       0.128100
     33 O33          2.1170    -4.0560    -3.5340 oh         1 1WN      -0.497100
     34 C34          3.4700    -2.4090    -2.4740 ca         1 1WN      -0.134500
     35 C35          3.9230    -1.8030    -1.3190 ca         1 1WN      -0.078500
     36 H1          -0.3140    -0.0480    -0.8880 ho         1 1WN       0.388000
     37 H2           1.9160    -0.0330    -0.8660 hn         1 1WN       0.158500
     38 H3           3.9940     0.3620     0.2840 h1         1 1WN       0.044700
     39 H4           4.4160     1.4960     2.3230 hn         1 1WN       0.207500
     40 H5           5.0010     0.7010     4.7100 ha         1 1WN       0.131000
     41 H6           5.9000     1.7910     6.7080 ha         1 1WN       0.117000
     42 H7           7.9640     8.2090    11.8710 ha         1 1WN       0.108500
     43 H8           8.5010     8.1980    14.2510 ha         1 1WN       0.123000
     44 H9           8.5930     6.7970    16.6920 hn         1 1WN       0.279800
     45 H10         10.0690     6.3810    15.8830 hn         1 1WN       0.279800
     46 H11          7.5860     4.2900    15.1200 ha         1 1WN       0.123000
     47 H12          7.3410     4.0690    12.7390 ha         1 1WN       0.108500
     48 H13          5.8250     5.5810     4.6690 ha         1 1WN       0.117000
     49 H14          4.9350     4.4850     2.6690 ha         1 1WN       0.131000
     50 H15          3.4510    -3.1740     2.1950 ho         1 1WN       0.395000
     51 H16          5.9060    -0.9620     1.9150 hc         1 1WN       0.018700
     52 H17          5.9300    -1.5630     0.2510 hc         1 1WN       0.018700
     53 H18          5.7830    -2.6990     1.5990 hc         1 1WN       0.018700
     54 H19          2.2480    -3.6490     0.9610 ha         1 1WN       0.118500
     55 H20          1.4280    -4.7280    -1.0960 ha         1 1WN       0.118000
     56 H21          1.3510    -3.6030    -3.8420 ho         1 1WN       0.404000
     57 H22          3.8140    -2.0590    -3.4400 ha         1 1WN       0.118000
     58 H23          4.6220    -0.9780    -1.3790 ha         1 1WN       0.118500
@<TRIPOS>BOND
     1     1     2 1   
     2     1    36 1   
     3     2     3 1   
     4     2    37 1   
     5     3     4 2   
     6     3     5 1   
     7     5     6 1   
     8     5    26 1   
     9     5    38 1   
    10     6     7 1   
    11     6    39 1   
    12     7     8 2   
    13     7     9 1   
    14     9    10 ar  
    15     9    25 ar  
    16    10    11 ar  
    17    10    40 1   
    18    11    12 ar  
    19    11    41 1   
    20    12    13 1   
    21    12    24 ar  
    22    13    14 3   
    23    14    15 1   
    24    15    16 3   
    25    16    17 1   
    26    17    18 ar  
    27    17    23 ar  
    28    18    19 ar  
    29    18    42 1   
    30    19    20 ar  
    31    19    43 1   
    32    20    21 1   
    33    20    22 ar  
    34    21    44 1   
    35    21    45 1   
    36    22    23 ar  
    37    22    46 1   
    38    23    47 1   
    39    24    25 ar  
    40    24    48 1   
    41    25    49 1   
    42    26    27 1   
    43    26    28 1   
    44    26    29 1   
    45    27    50 1   
    46    28    51 1   
    47    28    52 1   
    48    28    53 1   
    49    29    30 ar  
    50    29    35 ar  
    51    30    31 ar  
    52    30    54 1   
    53    31    32 ar  
    54    31    55 1   
    55    32    33 1   
    56    32    34 ar  
    57    33    56 1   
    58    34    35 ar  
    59    34    57 1   
    60    35    58 1   
@<TRIPOS>SUBSTRUCTURE
     1 1WN         1 TEMP              0 ****  ****    0 ROOT
