@<TRIPOS>MOLECULE
1WO
   49    51     1     0     0
SMALL
bcc


@<TRIPOS>ATOM
      1 OAA          0.1660     0.6090    -0.0190 o          1 1WO      -0.535100
      2 CAB          1.3920     0.4310    -0.0880 c          1 1WO       0.547500
      3 CAC          2.2220     0.5740     1.1380 cc         1 1WO       0.012900
      4 OAD          1.5530     0.9100     2.2920 oh         1 1WO      -0.490100
      5 CAE          3.5730     0.3940     1.1570 cd         1 1WO      -0.088200
      6 CAF          4.3920     0.5480     2.4230 c3         1 1WO       0.027200
      7 CAG          4.4940     2.0490     2.6880 c3         1 1WO      -0.090100
      8 CAH          3.6470    -0.1390     3.5840 c3         1 1WO      -0.069400
      9 CAI          4.5510    -0.8340     4.5780 c3         1 1WO      -0.077400
     10 CAJ          5.8360    -0.0730     4.7980 c3         1 1WO      -0.074400
     11 CAK          6.6840    -0.0050     3.5230 c3         1 1WO      -0.029000
     12 CAL          7.5310     1.2610     3.5660 c3         1 1WO      -0.093600
     13 CAM          7.6370    -1.2020     3.5050 c3         1 1WO      -0.093600
     14 CAN          5.7800    -0.1100     2.2780 c3         1 1WO      -0.139700
     15 CAO          6.4560     0.2900     0.9910 c          1 1WO       0.568300
     16 OAP          7.6310     0.6500     0.8710 o          1 1WO      -0.518100
     17 CAQ          5.6000     0.1160    -0.1980 ce         1 1WO      -0.197200
     18 CAR          4.2530     0.1360    -0.1090 cd         1 1WO      -0.007000
     19 CAS          3.4470    -0.0580    -1.3070 cd         1 1WO      -0.072000
     20 CAT          2.1060     0.0730    -1.3250 cc         1 1WO      -0.160400
     21 CAU          1.2880    -0.1260    -2.5630 c3         1 1WO      -0.032500
     22 CAW          1.4250    -1.5460    -3.0790 c3         1 1WO      -0.088100
     23 CAV          1.6790     0.8710    -3.6370 c3         1 1WO      -0.088100
     24 H1           0.6050     0.9860     2.0790 ho         1 1WO       0.441000
     25 H2           3.4740     2.5050     2.6520 hc         1 1WO       0.046033
     26 H3           4.9270     2.2420     3.6980 hc         1 1WO       0.046033
     27 H4           5.1360     2.5360     1.9160 hc         1 1WO       0.046033
     28 H5           3.0280     0.6340     4.1130 hc         1 1WO       0.054700
     29 H6           2.9310    -0.8980     3.1700 hc         1 1WO       0.054700
     30 H7           4.7880    -1.8710     4.2210 hc         1 1WO       0.040700
     31 H8           4.0060    -0.9400     5.5530 hc         1 1WO       0.040700
     32 H9           6.4330    -0.5650     5.6110 hc         1 1WO       0.044700
     33 H10          5.5950     0.9640     5.1530 hc         1 1WO       0.044700
     34 H11          6.9560     2.1480     3.2140 hc         1 1WO       0.040867
     35 H12          8.4340     1.1540     2.9140 hc         1 1WO       0.040867
     36 H13          7.8770     1.4480     4.6120 hc         1 1WO       0.040867
     37 H14          7.0730    -2.1570     3.6290 hc         1 1WO       0.040867
     38 H15          8.3750    -1.1140     4.3380 hc         1 1WO       0.040867
     39 H16          8.1940    -1.2300     2.5370 hc         1 1WO       0.040867
     40 H17          5.5670    -1.2180     2.1410 hc         1 1WO       0.075700
     41 H18          6.1230    -0.0270    -1.1580 ha         1 1WO       0.155000
     42 H19          3.9950    -0.3200    -2.2300 ha         1 1WO       0.145000
     43 H20          0.2030     0.0490    -2.3010 hc         1 1WO       0.081700
     44 H21          1.1050    -2.2780    -2.2990 hc         1 1WO       0.038533
     45 H22          0.7820    -1.6840    -3.9820 hc         1 1WO       0.038533
     46 H23          2.4830    -1.7650    -3.3600 hc         1 1WO       0.038533
     47 H24          1.5490     1.9150    -3.2670 hc         1 1WO       0.038533
     48 H25          2.7450     0.7300    -3.9400 hc         1 1WO       0.038533
     49 H26          1.0330     0.7290    -4.5370 hc         1 1WO       0.038533
@<TRIPOS>BOND
     1     1     2 2   
     2     2     3 1   
     3     2    20 1   
     4     3     4 1   
     5     3     5 2   
     6     4    24 1   
     7     5     6 1   
     8     5    18 1   
     9     6     7 1   
    10     6     8 1   
    11     6    14 1   
    12     7    25 1   
    13     7    26 1   
    14     7    27 1   
    15     8     9 1   
    16     8    28 1   
    17     8    29 1   
    18     9    10 1   
    19     9    30 1   
    20     9    31 1   
    21    10    11 1   
    22    10    32 1   
    23    10    33 1   
    24    11    12 1   
    25    11    13 1   
    26    11    14 1   
    27    12    34 1   
    28    12    35 1   
    29    12    36 1   
    30    13    37 1   
    31    13    38 1   
    32    13    39 1   
    33    14    15 1   
    34    14    40 1   
    35    15    16 2   
    36    15    17 1   
    37    17    18 2   
    38    17    41 1   
    39    18    19 1   
    40    19    20 2   
    41    19    42 1   
    42    20    21 1   
    43    21    22 1   
    44    21    23 1   
    45    21    43 1   
    46    22    44 1   
    47    22    45 1   
    48    22    46 1   
    49    23    47 1   
    50    23    48 1   
    51    23    49 1   
@<TRIPOS>SUBSTRUCTURE
     1 1WO         1 TEMP              0 ****  ****    0 ROOT
