@<TRIPOS>MOLECULE
1WO
   49    51     1     0     0
SMALL
bcc


@<TRIPOS>ATOM
      1 OAA        -0.1040    0.0330    0.0740 o         1 1WO     -0.535100
      2 CAB         1.1350    0.0350    0.0100 c         1 1WO      0.550500
      3 CAC         1.9170    0.0500    1.2820 cc        1 1WO      0.018900
      4 OAD         1.1720    0.1960    2.4270 oh        1 1WO     -0.491100
      5 CAE         3.2730   -0.0590    1.3290 cd        1 1WO     -0.093200
      6 CAF         4.1260    0.0260    2.5830 c3        1 1WO      0.028200
      7 CAG         4.6360    1.4650    2.6700 c3        1 1WO     -0.090100
      8 CAH         3.2960   -0.2940    3.8280 c3        1 1WO     -0.068400
      9 CAI         4.1160   -0.5160    5.0770 c3        1 1WO     -0.077400
     10 CAJ         5.1460   -1.6000    4.8780 c3        1 1WO     -0.074400
     11 CAK         6.0980   -1.2910    3.7200 c3        1 1WO     -0.029000
     12 CAL         7.0440   -0.1690    4.1160 c3        1 1WO     -0.097100
     13 CAM         6.9390   -2.5470    3.4770 c3        1 1WO     -0.097100
     14 CAN         5.2770   -1.0040    2.4530 c3        1 1WO     -0.138700
     15 CAO         6.1120   -0.6720    1.2390 c         1 1WO      0.568300
     16 OAP         7.3460   -0.6180    1.1990 o         1 1WO     -0.520100
     17 CAQ         5.3160   -0.4620    0.0150 ce        1 1WO     -0.200200
     18 CAR         3.9910   -0.2000    0.0600 cd        1 1WO     -0.007000
     19 CAS         3.2510   -0.0600   -1.1860 cd        1 1WO     -0.077000
     20 CAT         1.9080    0.0430   -1.2410 cc        1 1WO     -0.159400
     21 CAU         1.1880    0.1650   -2.5480 c3        1 1WO     -0.016500
     22 CAW         0.2850   -1.0300   -2.7880 c3        1 1WO     -0.095600
     23 CAV         0.3960    1.4560   -2.6190 c3        1 1WO     -0.095600
     24 H1          0.2290    0.2040    2.1810 ho        1 1WO      0.441000
     25 H2          5.5350    1.6080    2.0230 hc        1 1WO      0.043367
     26 H3          3.8380    2.1730    2.3370 hc        1 1WO      0.043367
     27 H4          4.9040    1.7290    3.7200 hc        1 1WO      0.043367
     28 H5          2.5900    0.5590    4.0180 hc        1 1WO      0.058200
     29 H6          2.6800   -1.2100    3.6250 hc        1 1WO      0.058200
     30 H7          3.4250   -0.8100    5.9120 hc        1 1WO      0.042700
     31 H8          4.6170    0.4370    5.3890 hc        1 1WO      0.042700
     32 H9          5.7450   -1.7300    5.8170 hc        1 1WO      0.042200
     33 H10         4.6250   -2.5730    4.6730 hc        1 1WO      0.042200
     34 H11         7.7550    0.0590    3.2850 hc        1 1WO      0.041867
     35 H12         6.4890    0.7610    4.3760 hc        1 1WO      0.041867
     36 H13         7.6380   -0.4810    5.0100 hc        1 1WO      0.041867
     37 H14         7.6970   -2.3600    2.6790 hc        1 1WO      0.041867
     38 H15         6.2920   -3.4030    3.1680 hc        1 1WO      0.041867
     39 H16         7.4730   -2.8300    4.4160 hc        1 1WO      0.041867
     40 H17         4.7690   -1.9880    2.2010 hc        1 1WO      0.074700
     41 H18         5.8650   -0.5370   -0.9380 ha        1 1WO      0.154000
     42 H19         3.8530   -0.0560   -2.1120 ha        1 1WO      0.144000
     43 H20         1.9610    0.1870   -3.3730 hc        1 1WO      0.048700
     44 H21         0.8750   -1.9770   -2.7660 hc        1 1WO      0.044033
     45 H22        -0.2050   -0.9370   -3.7870 hc        1 1WO      0.044033
     46 H23        -0.5090   -1.0820   -2.0040 hc        1 1WO      0.044033
     47 H24        -0.4010    1.4690   -1.8370 hc        1 1WO      0.044033
     48 H25         1.0650    2.3360   -2.4650 hc        1 1WO      0.044033
     49 H26        -0.0880    1.5470   -3.6220 hc        1 1WO      0.044033
@<TRIPOS>BOND
     1    1    2 2   
     2    2    3 1   
     3    2   20 1   
     4    3    4 1   
     5    3    5 2   
     6    4   24 1   
     7    5    6 1   
     8    5   18 1   
     9    6    7 1   
    10    6    8 1   
    11    6   14 1   
    12    7   25 1   
    13    7   26 1   
    14    7   27 1   
    15    8    9 1   
    16    8   28 1   
    17    8   29 1   
    18    9   10 1   
    19    9   30 1   
    20    9   31 1   
    21   10   11 1   
    22   10   32 1   
    23   10   33 1   
    24   11   12 1   
    25   11   13 1   
    26   11   14 1   
    27   12   34 1   
    28   12   35 1   
    29   12   36 1   
    30   13   37 1   
    31   13   38 1   
    32   13   39 1   
    33   14   15 1   
    34   14   40 1   
    35   15   16 2   
    36   15   17 1   
    37   17   18 2   
    38   17   41 1   
    39   18   19 1   
    40   19   20 2   
    41   19   42 1   
    42   20   21 1   
    43   21   22 1   
    44   21   23 1   
    45   21   43 1   
    46   22   44 1   
    47   22   45 1   
    48   22   46 1   
    49   23   47 1   
    50   23   48 1   
    51   23   49 1   
@<TRIPOS>SUBSTRUCTURE
     1 1WO         1 TEMP              0 ****  ****    0 ROOT
