@<TRIPOS>MOLECULE
molecule
   49    51     1     0     0
SMALL
bcc


@<TRIPOS>ATOM
      1 OAA          0.0000     0.0000     0.0000 o          1 1WO      -0.516100
      2 CAB          1.2180     0.0000     0.0000 c          1 1WO       0.541500
      3 CAC          1.9460     0.0000     1.2880 cc         1 1WO       0.013900
      4 OAD          1.1960     0.0700     2.4170 oh         1 1WO      -0.486100
      5 CAE          3.2900    -0.0710     1.3030 cc         1 1WO      -0.069200
      6 CAF          4.1040    -0.0290     2.5830 c3         1 1WO       0.007200
      7 CAG          4.6450     1.4030     2.6900 c3         1 1WO      -0.088100
      8 CAH          3.2460    -0.3240     3.8010 c3         1 1WO      -0.061400
      9 CAI          4.1070    -0.4460     5.0600 c3         1 1WO      -0.084400
     10 CAJ          5.1040    -1.5870     4.8870 c3         1 1WO      -0.071400
     11 CAK          6.0380    -1.3050     3.7040 c3         1 1WO      -0.045000
     12 CAL          7.0000    -0.1780     4.0800 c3         1 1WO      -0.086600
     13 CAM          6.8780    -2.5830     3.4810 c3         1 1WO      -0.086600
     14 CAN          5.2460    -1.0270     2.4480 c3         1 1WO      -0.137700
     15 CAO          6.1010    -0.6410     1.2660 c          1 1WO       0.568300
     16 OAP          7.3090    -0.5540     1.3030 o          1 1WO      -0.510100
     17 CAQ          5.3860    -0.3730     0.0020 cf         1 1WO      -0.201200
     18 CAR          4.0180    -0.1690     0.0280 cc         1 1WO      -0.015000
     19 CAS          3.2970    -0.0610    -1.2490 cc         1 1WO      -0.088000
     20 CAT          1.9550     0.0180    -1.2630 cd         1 1WO      -0.166400
     21 CAU          1.2160     0.1250    -2.5720 c3         1 1WO      -0.021500
     22 CAW          0.2670    -1.0660    -2.7200 c3         1 1WO      -0.087600
     23 CAV          0.4110     1.4250    -2.5990 c3         1 1WO      -0.087600
     24 H1           0.6010     0.7980     2.3540 ho         1 1WO       0.429000
     25 H2           5.4680     1.5310     1.9970 hc         1 1WO       0.043033
     26 H3           4.9930     1.5830     3.7000 hc         1 1WO       0.043033
     27 H4           3.8570     2.1060     2.4490 hc         1 1WO       0.043033
     28 H5           2.7130    -1.2540     3.6440 hc         1 1WO       0.059200
     29 H6           2.5340     0.4820     3.9360 hc         1 1WO       0.059200
     30 H7           3.4700    -0.6520     5.9120 hc         1 1WO       0.045200
     31 H8           4.6450     0.4810     5.2200 hc         1 1WO       0.045200
     32 H9           4.5640    -2.5080     4.7030 hc         1 1WO       0.044700
     33 H10          5.6930    -1.6860     5.7900 hc         1 1WO       0.044700
     34 H11          6.8710     0.6510     3.3950 hc         1 1WO       0.039700
     35 H12          6.7910     0.1520     5.0910 hc         1 1WO       0.039700
     36 H13          8.0200    -0.5390     4.0220 hc         1 1WO       0.039700
     37 H14          7.3380    -2.8800     4.4150 hc         1 1WO       0.039700
     38 H15          6.2360    -3.3800     3.1250 hc         1 1WO       0.039700
     39 H16          7.6490    -2.3850     2.7460 hc         1 1WO       0.039700
     40 H17          4.7830    -1.9700     2.1830 hc         1 1WO       0.073700
     41 H18          5.9430    -0.1980    -0.9100 ha         1 1WO       0.158000
     42 H19          3.8490    -0.0480    -2.1810 ha         1 1WO       0.146000
     43 H20          1.9270     0.1230    -3.3890 hc         1 1WO       0.052700
     44 H21          0.7200    -1.9460    -2.2810 hc         1 1WO       0.042200
     45 H22          0.0730    -1.2450    -3.7700 hc         1 1WO       0.042200
     46 H23         -0.6660    -0.8490    -2.2120 hc         1 1WO       0.042200
     47 H24          0.1950     1.6950    -3.6250 hc         1 1WO       0.042200
     48 H25          0.9860     2.2150    -2.1310 hc         1 1WO       0.042200
     49 H26         -0.5180     1.2860    -2.0590 hc         1 1WO       0.042200
@<TRIPOS>BOND
     1    23    21 1   
     2    22    21 1   
     3    21    20 1   
     4    19    20 2   
     5    19    18 1   
     6    20     2 1   
     7    17    18 2   
     8    17    15 1   
     9    18     5 1   
    10    16    15 2   
    11     2     1 2   
    12     2     3 1   
    13    15    14 1   
    14     5     3 2   
    15     5     6 1   
    16     3     4 1   
    17    14     6 1   
    18    14    11 1   
    19     6     7 1   
    20     6     8 1   
    21    12    11 1   
    22    11    13 1   
    23    11    10 1   
    24     8     9 1   
    25    10     9 1   
    26     4    24 1   
    27     7    25 1   
    28     7    26 1   
    29     7    27 1   
    30     8    28 1   
    31     8    29 1   
    32     9    30 1   
    33     9    31 1   
    34    10    32 1   
    35    10    33 1   
    36    12    34 1   
    37    12    35 1   
    38    12    36 1   
    39    13    37 1   
    40    13    38 1   
    41    13    39 1   
    42    14    40 1   
    43    17    41 1   
    44    19    42 1   
    45    21    43 1   
    46    22    44 1   
    47    22    45 1   
    48    22    46 1   
    49    23    47 1   
    50    23    48 1   
    51    23    49 1   
@<TRIPOS>SUBSTRUCTURE
     1 1WO         1 TEMP              0 ****  ****    0 ROOT
