@<TRIPOS>MOLECULE
1WP
   42    45     1     0     0
SMALL
bcc


@<TRIPOS>ATOM
      1 C1           0.0000     0.0000     0.0000 c3         1 1WP       0.153500
      2 C2           1.5250     0.0000     0.0000 c3         1 1WP       0.180100
      3 C3           2.1540     0.0000     1.3800 c3         1 1WP      -0.053400
      4 C4           1.4700     0.9720     2.3310 c3         1 1WP      -0.018400
      5 C5          -0.0060     0.5770     2.4540 c3         1 1WP      -0.029400
      6 C6          -0.6580     0.7740     1.1070 c3         1 1WP      -0.020400
      7 N7          -0.3270    -1.4350     0.0420 n2         1 1WP      -0.438900
      8 C8           0.7400    -2.0900    -0.3130 c2         1 1WP       0.329500
      9 O9           1.7890    -1.2920    -0.6090 os         1 1WP      -0.384400
     10 C10         -0.4750     0.5540    -1.3180 ca         1 1WP      -0.131300
     11 C11         -0.0610     1.8080    -1.7290 ca         1 1WP      -0.092000
     12 C12         -0.4940     2.3230    -2.9370 ca         1 1WP      -0.068000
     13 C13         -1.3410     1.5860    -3.7420 ca         1 1WP      -0.074000
     14 C14         -1.7590     0.3220    -3.3330 cp         1 1WP      -0.002000
     15 C15         -1.3170    -0.1940    -2.1160 ca         1 1WP      -0.106000
     16 C16         -2.6690    -0.4750    -4.1930 cp         1 1WP      -0.159300
     17 N17          0.7950    -3.4600    -0.3820 nz         1 1WP       0.238400
     18 C18         -3.0980    -1.7380    -3.7900 ca         1 1WP       0.396200
     19 N19         -3.9060    -2.4470    -4.5520 nb         1 1WP      -0.565000
     20 C20         -4.3390    -1.9980    -5.7140 ca         1 1WP       0.422200
     21 C21         -3.9590    -0.7530    -6.1850 ca         1 1WP      -0.158900
     22 C22         -3.1130     0.0310    -5.4170 ca         1 1WP      -0.057000
     23 Cl1         -4.5370    -0.1800    -7.7170 cl         1 1WP       0.030600
     24 H1           1.9160     0.8040    -0.6110 h1         1 1WP       0.090700
     25 H2           3.1970     0.2780     1.2880 hc         1 1WP       0.028200
     26 H3           2.0870    -0.9990     1.7940 hc         1 1WP       0.028200
     27 H4           1.5450     1.9780     1.9370 hc         1 1WP       0.034200
     28 H5           1.9420     0.9200     3.3040 hc         1 1WP       0.034200
     29 H6          -0.4910     1.2070     3.1900 hc         1 1WP       0.029200
     30 H7          -0.0820    -0.4630     2.7480 hc         1 1WP       0.029200
     31 H8          -0.6240     1.8270     0.8580 hc         1 1WP       0.049200
     32 H9          -1.6930     0.4620     1.1770 hc         1 1WP       0.049200
     33 H11          0.6030     2.3900    -1.1010 ha         1 1WP       0.113000
     34 H12         -0.1670     3.3070    -3.2540 ha         1 1WP       0.120000
     35 H13         -1.6800     1.9910    -4.6870 ha         1 1WP       0.125000
     36 H14         -1.6400    -1.1770    -1.7940 ha         1 1WP       0.113000
     37 H15          1.3410    -3.8110     0.3790 hn         1 1WP       0.222800
     38 H16         -2.7640    -2.1410    -2.8420 h4         1 1WP      -0.029900
     39 H17         -5.0010    -2.6150    -6.3110 h4         1 1WP      -0.000900
     40 H18         -2.7990     1.0100    -5.7600 ha         1 1WP       0.130000
     41 H10         -0.1320    -3.8340    -0.3280 hn         1 1WP       0.222800
     42 H173         1.2140    -3.7340    -1.2490 hn         1 1WP       0.222800
@<TRIPOS>BOND
     1     1     2 1   
     2     1     6 1   
     3     1     7 1   
     4     1    10 1   
     5     2     3 1   
     6     2     9 1   
     7     2    24 1   
     8     3     4 1   
     9     3    25 1   
    10     3    26 1   
    11     4     5 1   
    12     4    27 1   
    13     4    28 1   
    14     5     6 1   
    15     5    29 1   
    16     5    30 1   
    17     6    31 1   
    18     6    32 1   
    19     7     8 2   
    20     8     9 1   
    21     8    17 1   
    22    10    11 ar  
    23    10    15 ar  
    24    11    12 ar  
    25    11    33 1   
    26    12    13 ar  
    27    12    34 1   
    28    13    14 ar  
    29    13    35 1   
    30    14    15 ar  
    31    14    16 1   
    32    15    36 1   
    33    16    18 ar  
    34    16    22 ar  
    35    17    37 1   
    36    17    41 1   
    37    17    42 1   
    38    18    19 ar  
    39    18    38 1   
    40    19    20 ar  
    41    20    21 ar  
    42    20    39 1   
    43    21    22 ar  
    44    21    23 1   
    45    22    40 1   
@<TRIPOS>SUBSTRUCTURE
     1 1WP         1 TEMP              0 ****  ****    0 ROOT
