@<TRIPOS>MOLECULE
molecule
   42    45     1     0     0
SMALL
bcc


@<TRIPOS>ATOM
      1 C1           0.0000     0.0000     0.0000 c3         1 1WP       0.160500
      2 C2           1.5250     0.0000     0.0000 c3         1 1WP       0.142100
      3 C3           2.1540     0.0000     1.3800 c3         1 1WP      -0.104400
      4 C4           1.4700     0.9720     2.3310 c3         1 1WP      -0.080400
      5 C5          -0.0060     0.5770     2.4540 c3         1 1WP      -0.087400
      6 C6          -0.6580     0.7740     1.1070 c3         1 1WP      -0.062400
      7 N7          -0.3270    -1.4350     0.0420 n2         1 1WP      -0.544900
      8 C8           0.7400    -2.0900    -0.3130 c2         1 1WP       0.577500
      9 O9           1.7890    -1.2920    -0.6090 os         1 1WP      -0.415400
     10 C10         -0.4750     0.5540    -1.3180 ca         1 1WP      -0.115300
     11 C11         -0.0610     1.8080    -1.7290 ca         1 1WP      -0.119000
     12 C12         -0.4940     2.3230    -2.9370 ca         1 1WP      -0.102000
     13 C13         -1.3410     1.5860    -3.7420 ca         1 1WP      -0.098000
     14 C14         -1.7590     0.3220    -3.3330 cp         1 1WP      -0.015000
     15 C15         -1.3170    -0.1940    -2.1160 ca         1 1WP      -0.116000
     16 C16         -2.6690    -0.4750    -4.1930 cp         1 1WP      -0.164300
     17 N17          0.7950    -3.4600    -0.3820 nz         1 1WP      -0.716600
     18 C18         -3.0980    -1.7380    -3.7900 ca         1 1WP       0.418200
     19 N19         -3.9060    -2.4470    -4.5520 nb         1 1WP      -0.673000
     20 C20         -4.3390    -1.9980    -5.7140 ca         1 1WP       0.441200
     21 C21         -3.9590    -0.7530    -6.1850 ca         1 1WP      -0.090900
     22 C22         -3.1130     0.0310    -5.4170 ca         1 1WP      -0.075000
     23 Cl1         -4.5370    -0.1800    -7.7170 cl         1 1WP      -0.066400
     24 H1           1.9160     0.8040    -0.6110 h1         1 1WP       0.132700
     25 H2           3.1970     0.2780     1.2880 hc         1 1WP       0.059200
     26 H3           2.0870    -0.9990     1.7940 hc         1 1WP       0.059200
     27 H4           1.5450     1.9780     1.9370 hc         1 1WP       0.066200
     28 H5           1.9420     0.9200     3.3040 hc         1 1WP       0.066200
     29 H6          -0.4910     1.2070     3.1900 hc         1 1WP       0.061200
     30 H7          -0.0820    -0.4630     2.7480 hc         1 1WP       0.061200
     31 H8          -0.6240     1.8270     0.8580 hc         1 1WP       0.079700
     32 H9          -1.6930     0.4620     1.1770 hc         1 1WP       0.079700
     33 H11          0.6030     2.3900    -1.1010 ha         1 1WP       0.136000
     34 H12         -0.1670     3.3070    -3.2540 ha         1 1WP       0.153000
     35 H13         -1.6800     1.9910    -4.6870 ha         1 1WP       0.151000
     36 H14         -1.6400    -1.1770    -1.7940 ha         1 1WP       0.132000
     37 H15          1.3410    -3.8110     0.3790 hn         1 1WP       0.483467
     38 H16         -2.7640    -2.1410    -2.8420 h4         1 1WP       0.011100
     39 H17         -5.0010    -2.6150    -6.3110 h4         1 1WP       0.048100
     40 H18         -2.7990     1.0100    -5.7600 ha         1 1WP       0.159000
     41 H10         -0.1320    -3.8340    -0.3280 hn         1 1WP       0.483467
     42 H173         1.2140    -3.7340    -1.2490 hn         1 1WP       0.483467
@<TRIPOS>BOND
     1     3     4 1
     2     3     2 1
     3     4     5 1
     4     2     9 1
     5     2     1 1
     6     5     6 1
     7     9     8 1
     8    11    12 ar
     9    11    10 ar
    10     6     1 1
    11    12    13 ar
    12     1    10 1
    13     1     7 1
    14    10    15 ar
    15    13    14 ar
    16    18    19 ar
    17    18    16 ar
    18    15    14 ar
    19    14    16 1
    20    19    20 ar
    21     8     7 2
    22     8    17 1
    23    16    22 ar
    24    20    21 ar
    25    22    21 ar
    26    21    23 1
    27     2    24 1
    28     3    25 1
    29     3    26 1
    30     4    27 1
    31     4    28 1
    32     5    29 1
    33     5    30 1
    34     6    31 1
    35     6    32 1
    36    11    33 1
    37    12    34 1
    38    13    35 1
    39    15    36 1
    40    17    37 1
    41    18    38 1
    42    20    39 1
    43    22    40 1
    44    17    41 1
    45    42    17 1
@<TRIPOS>SUBSTRUCTURE
     1 1WP         1 TEMP              0 ****  ****    0 ROOT
