@<TRIPOS>MOLECULE
1WP
   42    45     1     0     0
SMALL
bcc


@<TRIPOS>ATOM
      1 C1          -0.0220     0.0320     0.0810 c3         1 1WP       0.170500
      2 C2           1.5630    -0.0350     0.0110 c3         1 1WP       0.128100
      3 C3           2.2370    -0.1610     1.3570 c3         1 1WP      -0.096400
      4 C4           1.6040    -1.2130     2.2380 c3         1 1WP      -0.083400
      5 C5           0.1070    -1.0350     2.4000 c3         1 1WP      -0.090400
      6 C6          -0.4740     0.0710     1.5480 c3         1 1WP      -0.069400
      7 N7          -0.4790    -1.2250    -0.5880 n2         1 1WP      -0.499900
      8 C8           0.5930    -1.8340    -1.0160 c2         1 1WP       0.590500
      9 O9           1.8430    -1.2490    -0.7790 os         1 1WP      -0.444400
     10 C10         -0.5190     1.2290    -0.6980 ca         1 1WP      -0.109300
     11 C11         -1.4500     2.1250    -0.1650 ca         1 1WP      -0.093000
     12 C12         -1.8640     3.2290    -0.9120 ca         1 1WP      -0.116000
     13 C13         -1.3670     3.4450    -2.1940 ca         1 1WP      -0.089000
     14 C14         -0.4460     2.5430    -2.7490 cp         1 1WP      -0.020000
     15 C15         -0.0340     1.4380    -1.9960 ca         1 1WP      -0.123000
     16 C16          0.0780     2.7540    -4.0930 cp         1 1WP      -0.162300
     17 N17          0.6900    -3.1010    -1.7420 nz         1 1WP      -0.767600
     18 C18          0.4580     4.0450    -4.5270 ca         1 1WP       0.416200
     19 N19          0.9500     4.3010    -5.7520 nb         1 1WP      -0.638000
     20 C20          1.0840     3.2730    -6.6080 ca         1 1WP       0.423200
     21 C21          0.7310     1.9480    -6.2680 ca         1 1WP      -0.107900
     22 C22          0.2190     1.6890    -4.9930 ca         1 1WP      -0.087000
     23 Cl1          0.9210     0.6980    -7.3900 cl         1 1WP      -0.064400
     24 H1           1.9960     0.8040    -0.5950 h1         1 1WP       0.116700
     25 H2           2.1890     0.8440     1.8570 hc         1 1WP       0.082200
     26 H3           3.3210    -0.4080     1.1980 hc         1 1WP       0.082200
     27 H4           2.1000    -1.1830     3.2450 hc         1 1WP       0.052700
     28 H5           1.8170    -2.2260     1.8040 hc         1 1WP       0.052700
     29 H6          -0.4120    -2.0030     2.1700 hc         1 1WP       0.059200
     30 H7          -0.1280    -0.7980     3.4730 hc         1 1WP       0.059200
     31 H8          -0.1580     1.0670     1.9600 hc         1 1WP       0.079200
     32 H9          -1.5950     0.0140     1.5950 hc         1 1WP       0.079200
     33 H11         -1.8750     1.9830     0.8410 ha         1 1WP       0.147000
     34 H12         -2.5950     3.9330    -0.4820 ha         1 1WP       0.156000
     35 H13         -1.7010     4.3170    -2.7790 ha         1 1WP       0.157000
     36 H14          0.6910     0.7340    -2.4340 ha         1 1WP       0.121000
     37 H15         -0.2490    -3.4420    -1.9910 hn         1 1WP       0.488800
     38 H16          0.3660     4.9180    -3.8540 h4         1 1WP       0.036100
     39 H17          1.4890     3.5190    -7.6080 h4         1 1WP       0.051100
     40 H18         -0.0840     0.6720    -4.7040 ha         1 1WP       0.137000
     41 H10          1.2500    -2.9460    -2.5910 hn         1 1WP       0.488800
     42 H173         1.1670    -3.7850    -1.1390 hn         1 1WP       0.488800
@<TRIPOS>BOND
     1     1     2 1   
     2     1     6 1   
     3     1     7 1   
     4     1    10 1   
     5     2     3 1   
     6     2     9 1   
     7     2    24 1   
     8     3     4 1   
     9     3    25 1   
    10     3    26 1   
    11     4     5 1   
    12     4    27 1   
    13     4    28 1   
    14     5     6 1   
    15     5    29 1   
    16     5    30 1   
    17     6    31 1   
    18     6    32 1   
    19     7     8 2   
    20     8     9 1   
    21     8    17 1   
    22    10    11 ar  
    23    10    15 ar  
    24    11    12 ar  
    25    11    33 1   
    26    12    13 ar  
    27    12    34 1   
    28    13    14 ar  
    29    13    35 1   
    30    14    15 ar  
    31    14    16 1   
    32    15    36 1   
    33    16    18 ar  
    34    16    22 ar  
    35    17    37 1   
    36    17    41 1   
    37    17    42 1   
    38    18    19 ar  
    39    18    38 1   
    40    19    20 ar  
    41    20    21 ar  
    42    20    39 1   
    43    21    22 ar  
    44    21    23 1   
    45    22    40 1   
@<TRIPOS>SUBSTRUCTURE
     1 1WP         1 TEMP              0 ****  ****    0 ROOT
