@<TRIPOS>MOLECULE
1WQ
   47    50     1     0     0
SMALL
bcc


@<TRIPOS>ATOM
      1 C1           0.0000     0.0000     0.0000 c3         1 1WQ      -0.027100
      2 C2           1.5310     0.0000     0.0000 c3         1 1WQ       0.117100
      3 O4           2.0070     0.0000     1.3470 os         1 1WQ      -0.297900
      4 C5           1.8890     1.1660     2.0370 ca         1 1WQ       0.111100
      5 C6           1.6610     1.1580     3.4030 ca         1 1WQ      -0.104000
      6 C7           1.5440     2.3540     4.0880 ca         1 1WQ      -0.066000
      7 C8           1.6520     3.5570     3.4140 ca         1 1WQ      -0.093300
      8 C9           1.5230     4.8560     4.1700 c3         1 1WQ       0.214100
      9 N10          2.8480     5.2800     4.6420 n3         1 1WQ      -0.533600
     10 C11          2.7370     6.4240     5.5620 c3         1 1WQ       0.151800
     11 C12          4.0850     6.6170     6.2620 c3         1 1WQ       0.039800
     12 C13          5.1890     6.6240     5.2420 ce         1 1WQ      -0.072400
     13 C14          5.0270     6.1740     4.0180 c2         1 1WQ      -0.149200
     14 C15          3.7250     5.6180     3.5150 c3         1 1WQ       0.193000
     15 C16          6.5110     7.1580     5.6310 ca         1 1WQ      -0.047800
     16 C17          7.2700     6.5070     6.6060 ca         1 1WQ      -0.082500
     17 C18          8.5050     7.0080     6.9620 ca         1 1WQ      -0.098500
     18 C19          8.9930     8.1520     6.3540 ca         1 1WQ      -0.035600
     19 Cl          10.5490     8.7760     6.8080 cl         1 1WQ      -0.030400
     20 C21          8.2450     8.8010     5.3860 ca         1 1WQ      -0.098500
     21 C22          7.0080     8.3100     5.0230 ca         1 1WQ      -0.082500
     22 C23          1.8810     3.5720     2.0510 ca         1 1WQ      -0.104000
     23 C24          1.9990     2.3790     1.3590 ca         1 1WQ      -0.156400
     24 N25          2.2310     2.3710    -0.0240 ns         1 1WQ      -0.015100
     25 C26          2.0320     1.2290    -0.7160 c          1 1WQ       0.570500
     26 O27          2.2560     1.1910    -1.9070 o          1 1WQ      -0.656500
     27 H1          -0.3610    -0.6170     0.8140 hc         1 1WQ       0.019367
     28 H2          -0.3610    -0.3970    -0.9410 hc         1 1WQ       0.019367
     29 H3          -0.3610     1.0130     0.1270 hc         1 1WQ       0.019367
     30 H4           1.8950    -0.8840    -0.5090 h1         1 1WQ       0.070700
     31 H5           1.5750     0.2180     3.9330 ha         1 1WQ       0.119000
     32 H6           1.3630     2.3490     5.1560 ha         1 1WQ       0.113000
     33 H7           0.8650     4.7160     5.0180 h1         1 1WQ       0.013200
     34 H8           1.1130     5.6150     3.5150 h1         1 1WQ       0.013200
     35 H10          1.9710     6.2240     6.3010 h1         1 1WQ       0.010700
     36 H11          2.4870     7.3180     5.0030 h1         1 1WQ       0.010700
     37 H12          4.0820     7.5610     6.7930 hc         1 1WQ       0.026200
     38 H13          4.2470     5.8050     6.9610 hc         1 1WQ       0.026200
     39 H14          5.8720     6.2040     3.3400 ha         1 1WQ       0.109000
     40 H15          3.2380     6.3580     2.8920 h1         1 1WQ       0.019200
     41 H16          3.9200     4.7250     2.9330 h1         1 1WQ       0.019200
     42 H17          6.8890     5.6120     7.0820 ha         1 1WQ       0.111500
     43 H18          9.0950     6.5040     7.7180 ha         1 1WQ       0.114500
     44 H19          8.6320     9.6960     4.9140 ha         1 1WQ       0.114500
     45 H20          6.4240     8.8190     4.2650 ha         1 1WQ       0.111500
     46 H21          1.9650     4.5160     1.5250 ha         1 1WQ       0.114000
     47 H22          2.6980     3.1440    -0.4570 hn         1 1WQ       0.182500
@<TRIPOS>BOND
     1     1     2 1   
     2     1    27 1   
     3     1    28 1   
     4     1    29 1   
     5     2     3 1   
     6     2    25 1   
     7     2    30 1   
     8     3     4 1   
     9     4     5 ar  
    10     4    23 ar  
    11     5     6 ar  
    12     5    31 1   
    13     6     7 ar  
    14     6    32 1   
    15     7     8 1   
    16     7    22 ar  
    17     8     9 1   
    18     8    33 1   
    19     8    34 1   
    20     9    10 1   
    21     9    14 1   
    22    10    11 1   
    23    10    35 1   
    24    10    36 1   
    25    11    12 1   
    26    11    37 1   
    27    11    38 1   
    28    12    13 2   
    29    12    15 1   
    30    13    14 1   
    31    13    39 1   
    32    14    40 1   
    33    14    41 1   
    34    15    16 ar  
    35    15    21 ar  
    36    16    17 ar  
    37    16    42 1   
    38    17    18 ar  
    39    17    43 1   
    40    18    19 1   
    41    18    20 ar  
    42    20    21 ar  
    43    20    44 1   
    44    21    45 1   
    45    22    23 ar  
    46    22    46 1   
    47    23    24 1   
    48    24    25 1   
    49    24    47 1   
    50    25    26 2   
@<TRIPOS>SUBSTRUCTURE
     1 1WQ         1 TEMP              0 ****  ****    0 ROOT
