@<TRIPOS>MOLECULE
1WQ
   47    50     1     0     0
SMALL
bcc


@<TRIPOS>ATOM
      1 C1           0.1500     0.5070    -0.2910 c3         1 1WQ      -0.092100
      2 C2           1.5870     0.0720    -0.0790 c3         1 1WQ       0.083100
      3 O4           1.9070     0.4280     1.2750 os         1 1WQ      -0.317900
      4 C5           3.2610     0.4840     1.5650 ca         1 1WQ       0.070100
      5 C6           3.6390     0.2710     2.8930 ca         1 1WQ      -0.118000
      6 C7           4.9780     0.4020     3.2490 ca         1 1WQ      -0.131000
      7 C8           5.9390     0.7390     2.2910 ca         1 1WQ      -0.078300
      8 C9           7.3680     0.9340     2.7130 c3         1 1WQ       0.217100
      9 N10          8.3350     0.2340     1.8770 n3         1 1WQ      -0.732600
     10 C11          8.2040    -1.2140     1.9510 c3         1 1WQ       0.166800
     11 C12          9.1620    -1.9510     1.0140 c3         1 1WQ      -0.039200
     12 C13         10.5470    -1.4090     1.0970 ce         1 1WQ      -0.061400
     13 C14         10.7730    -0.1820     1.5970 c2         1 1WQ      -0.163200
     14 C15          9.6940     0.7020     2.1270 c3         1 1WQ       0.201000
     15 C16         11.6320    -2.2430     0.5820 ca         1 1WQ      -0.048800
     16 C17         11.7480    -3.5890     0.9560 ca         1 1WQ      -0.112500
     17 C18         12.7870    -4.3750     0.4640 ca         1 1WQ      -0.124500
     18 C19         13.7220    -3.8160    -0.4130 ca         1 1WQ       0.017400
     19 Cl          14.9890    -4.7740    -1.0180 cl         1 1WQ      -0.094400
     20 C21         13.6210    -2.4750    -0.7940 ca         1 1WQ      -0.124500
     21 C22         12.5810    -1.6960    -0.2940 ca         1 1WQ      -0.112500
     22 C23          5.5690     0.9460     0.9600 ca         1 1WQ      -0.126000
     23 C24          4.2210     0.8230     0.5770 ca         1 1WQ       0.012600
     24 N25          3.8000     1.0210    -0.7450 ns         1 1WQ      -0.465100
     25 C26          2.5080     0.6980    -1.1270 c          1 1WQ       0.675500
     26 O27          2.1470     0.8750    -2.3030 o          1 1WQ      -0.616500
     27 H1           0.0370     1.5960    -0.0730 hc         1 1WQ       0.061700
     28 H2          -0.5210    -0.0660     0.3920 hc         1 1WQ       0.061700
     29 H3          -0.1360     0.3140    -1.3530 hc         1 1WQ       0.061700
     30 H4           1.6900    -1.0470    -0.1780 h1         1 1WQ       0.073700
     31 H5           2.8730     0.0130     3.6390 ha         1 1WQ       0.153000
     32 H6           5.2760     0.2380     4.2960 ha         1 1WQ       0.138000
     33 H7           7.5970     2.0380     2.6410 h1         1 1WQ       0.041700
     34 H8           7.4730     0.6380     3.8000 h1         1 1WQ       0.041700
     35 H10          8.3720    -1.5910     3.0030 h1         1 1WQ       0.037200
     36 H11          7.1460    -1.4710     1.6620 h1         1 1WQ       0.037200
     37 H12          8.8050    -1.8560    -0.0480 hc         1 1WQ       0.059200
     38 H13          9.1440    -3.0400     1.2800 hc         1 1WQ       0.059200
     39 H14         11.7850     0.2450     1.6560 ha         1 1WQ       0.133000
     40 H15          9.7820     1.7140     1.6330 h1         1 1WQ       0.043200
     41 H16          9.8900     0.8500     3.2340 h1         1 1WQ       0.043200
     42 H17         11.0200    -4.0320     1.6530 ha         1 1WQ       0.140000
     43 H18         12.8700    -5.4300     0.7670 ha         1 1WQ       0.147500
     44 H19         14.3570    -2.0360    -1.4840 ha         1 1WQ       0.147500
     45 H20         12.4970    -0.6390    -0.5930 ha         1 1WQ       0.140000
     46 H21          6.3380     1.2070     0.2160 ha         1 1WQ       0.156000
     47 H22          4.4480     1.3670    -1.4140 hn         1 1WQ       0.337500
@<TRIPOS>BOND
     1     1     2 1   
     2     1    27 1   
     3     1    28 1   
     4     1    29 1   
     5     2     3 1   
     6     2    25 1   
     7     2    30 1   
     8     3     4 1   
     9     4     5 ar  
    10     4    23 ar  
    11     5     6 ar  
    12     5    31 1   
    13     6     7 ar  
    14     6    32 1   
    15     7     8 1   
    16     7    22 ar  
    17     8     9 1   
    18     8    33 1   
    19     8    34 1   
    20     9    10 1   
    21     9    14 1   
    22    10    11 1   
    23    10    35 1   
    24    10    36 1   
    25    11    12 1   
    26    11    37 1   
    27    11    38 1   
    28    12    13 2   
    29    12    15 1   
    30    13    14 1   
    31    13    39 1   
    32    14    40 1   
    33    14    41 1   
    34    15    16 ar  
    35    15    21 ar  
    36    16    17 ar  
    37    16    42 1   
    38    17    18 ar  
    39    17    43 1   
    40    18    19 1   
    41    18    20 ar  
    42    20    21 ar  
    43    20    44 1   
    44    21    45 1   
    45    22    23 ar  
    46    22    46 1   
    47    23    24 1   
    48    24    25 1   
    49    24    47 1   
    50    25    26 2   
@<TRIPOS>SUBSTRUCTURE
     1 1WQ         1 TEMP              0 ****  ****    0 ROOT
