@<TRIPOS>MOLECULE
1WS
   48    51     1     0     0
SMALL
bcc


@<TRIPOS>ATOM
      1 O23          0.0000     0.0000     0.0000 o          1 1WS      -0.633100
      2 C21          1.2160     0.0000     0.0000 c          1 1WS       0.536600
      3 N22          1.8900     0.0000     1.1670 ns         1 1WS      -0.212900
      4 C24          1.1570    -0.0020     2.4360 c3         1 1WS       0.069000
      5 C25          2.1510    -0.0020     3.5990 c3         1 1WS      -0.051400
      6 C26          1.3870    -0.0040     4.9240 c3         1 1WS      -0.047200
      7 N27          2.3410    -0.0050     6.0400 nz         1 1WS       0.086400
      8 C8           1.9550    -0.0040    -1.2800 cc         1 1WS       0.321800
      9 C7           1.3820    -0.0100    -2.5560 cc         1 1WS      -0.256600
     10 C4          -0.0670    -0.0540    -2.9570 c3         1 1WS       0.065900
     11 C3          -0.3150     0.6920    -4.2690 c3         1 1WS      -0.037700
     12 N9           3.2710     0.0020    -1.4140 nd         1 1WS      -0.709800
     13 N10          3.5790    -0.0020    -2.7850 na         1 1WS       0.499400
     14 C6           2.4200     0.0100    -3.4660 cd         1 1WS      -0.123300
     15 C1           2.0950     0.0730    -4.9030 cd         1 1WS      -0.339300
     16 C11          2.8260    -0.0940    -6.0410 cc         1 1WS      -0.090700
     17 N12          1.9710     0.0590    -7.0860 na         1 1WS       0.390400
     18 N5           0.6970     0.3520    -6.5760 nc         1 1WS      -0.627800
     19 C2           0.7550     0.3860    -5.2820 cd         1 1WS       0.417600
     20 N13          4.1840    -0.3680    -6.1180 nu         1 1WS      -0.191000
     21 C14          4.7730    -0.6390    -7.3560 ca         1 1WS       0.016600
     22 C19          6.0750    -0.2290    -7.6120 ca         1 1WS      -0.173000
     23 C18          6.6550    -0.4970    -8.8390 ca         1 1WS       0.149900
     24 F20          7.9220    -0.1000    -9.0890 f          1 1WS      -0.120900
     25 C17          5.9370    -1.1750    -9.8110 ca         1 1WS      -0.149000
     26 C16          4.6410    -1.5840    -9.5580 ca         1 1WS      -0.027000
     27 C15          4.0600    -1.3240    -8.3320 ca         1 1WS      -0.189000
     28 H22          2.8910     0.0010     1.1670 hn         1 1WS       0.195500
     29 H241         0.5350    -0.8870     2.4930 h1         1 1WS       0.033700
     30 H242         0.5340     0.8820     2.4950 h1         1 1WS       0.033700
     31 H251         2.7730     0.8830     3.5420 hc         1 1WS       0.036700
     32 H252         2.7750    -0.8860     3.5400 hc         1 1WS       0.036700
     33 H261         0.7630     0.8790     4.9830 hx         1 1WS       0.089700
     34 H262         0.7650    -0.8900     4.9800 hx         1 1WS       0.089700
     35 H271         2.9160     0.8130     5.9880 hn         1 1WS       0.224133
     36 H272         2.9170    -0.8220     5.9860 hn         1 1WS       0.224133
     37 H41C        -0.3340    -1.0920    -3.1130 hc         1 1WS       0.038200
     38 H42C        -0.6380     0.4420    -2.1820 hc         1 1WS       0.038200
     39 H31C        -1.2600     0.3480    -4.6710 hc         1 1WS       0.033700
     40 H32C        -0.2780     1.7540    -4.0580 hc         1 1WS       0.033700
     41 H10          4.4970     0.0010    -3.1840 hn         1 1WS       0.140700
     42 H12          2.2120    -0.0140    -8.0550 hn         1 1WS       0.177700
     43 H13          4.7360    -0.4040    -5.2840 hn         1 1WS       0.284800
     44 H19          6.6520     0.2580    -6.8350 ha         1 1WS       0.124000
     45 H15          3.0440    -1.6450    -8.1350 ha         1 1WS       0.123000
     46 H17          6.3910    -1.3830   -10.7720 ha         1 1WS       0.129000
     47 H16          4.0830    -2.1160   -10.3190 ha         1 1WS       0.114000
     48 H273         1.8410    -0.0010     6.9070 hn         1 1WS       0.224133
@<TRIPOS>BOND
     1     1     2 2   
     2     2     3 1   
     3     2     8 1   
     4     3     4 1   
     5     3    28 1   
     6     4     5 1   
     7     4    29 1   
     8     4    30 1   
     9     5     6 1   
    10     5    31 1   
    11     5    32 1   
    12     6     7 1   
    13     6    33 1   
    14     6    34 1   
    15     7    35 1   
    16     7    36 1   
    17     7    48 1   
    18     8     9 1   
    19     8    12 2   
    20     9    10 1   
    21     9    14 2   
    22    10    11 1   
    23    10    37 1   
    24    10    38 1   
    25    11    19 1   
    26    11    39 1   
    27    11    40 1   
    28    12    13 1   
    29    13    14 1   
    30    13    41 1   
    31    14    15 1   
    32    15    16 2   
    33    15    19 1   
    34    16    17 1   
    35    16    20 1   
    36    17    18 1   
    37    17    42 1   
    38    18    19 2   
    39    20    21 1   
    40    20    43 1   
    41    21    22 ar  
    42    21    27 ar  
    43    22    23 ar  
    44    22    44 1   
    45    23    24 1   
    46    23    25 ar  
    47    25    26 ar  
    48    25    46 1   
    49    26    27 ar  
    50    26    47 1   
    51    27    45 1   
@<TRIPOS>SUBSTRUCTURE
     1 1WS         1 TEMP              0 ****  ****    0 ROOT
