@<TRIPOS>MOLECULE
1WS
   49    52     1     0     0
SMALL
bcc


@<TRIPOS>ATOM
      1 O23          0.7990     1.0770     0.4460 o          1 1WS      -0.467100
      2 C21          1.7690     0.3630     0.2340 c          1 1WS       0.526600
      3 N22          2.3780    -0.2960     1.4920 ny         1 1WS      -0.682800
      4 C24          1.5810    -0.1030     2.7300 c3         1 1WS       0.114800
      5 C25          1.6620     1.3110     3.3080 c3         1 1WS      -0.134400
      6 C26          0.7300     1.3880     4.5160 c3         1 1WS       0.103800
      7 N27          0.6480     2.7560     5.1020 nz         1 1WS      -0.836600
      8 C8           2.4450     0.0400    -0.9860 cc         1 1WS       0.167800
      9 C7           2.0500     0.4710    -2.3030 cc         1 1WS      -0.139600
     10 C4           0.9180     1.2540    -2.8120 c3         1 1WS      -0.017100
     11 C3           1.1970     1.9330    -4.1540 c3         1 1WS      -0.106700
     12 N9           3.6030    -0.7410    -1.0700 nd         1 1WS      -0.529800
     13 N10          3.9290    -0.8020    -2.3390 na         1 1WS       0.089400
     14 C6           3.0410    -0.0990    -3.1580 cd         1 1WS       0.053700
     15 C1           3.0240     0.1470    -4.5440 cd         1 1WS      -0.295300
     16 C11          3.7170    -0.3270    -5.6870 cc         1 1WS       0.168300
     17 N12          3.1640     0.3890    -6.7680 na         1 1WS      -0.013600
     18 N5           2.2370     1.2750    -6.3880 nc         1 1WS      -0.459800
     19 C2           2.0880     1.1530    -5.0450 cd         1 1WS       0.354600
     20 N13          4.7300    -1.2900    -5.7190 nu         1 1WS      -0.578000
     21 C14          5.5900    -1.3310    -6.8550 ca         1 1WS       0.090600
     22 C19          5.8840    -2.5660    -7.4630 ca         1 1WS      -0.201000
     23 C18          6.8130    -2.6130    -8.5170 ca         1 1WS       0.165900
     24 F20          7.1010    -3.8020    -9.0920 f          1 1WS      -0.116900
     25 C17          7.4380    -1.4380    -8.9780 ca         1 1WS      -0.157000
     26 C16          7.1290    -0.2260    -8.3710 ca         1 1WS      -0.077000
     27 C15          6.2180    -0.1570    -7.3190 ca         1 1WS      -0.171000
     28 H22          2.4560    -1.3070     1.3070 hn         1 1WS       0.474800
     29 H241         0.5050    -0.3460     2.4790 hx         1 1WS       0.117200
     30 H242         1.9510    -0.8470     3.4960 hx         1 1WS       0.117200
     31 H251         2.7170     1.5460     3.6130 hc         1 1WS       0.096700
     32 H252         1.3480     2.0570     2.5240 hc         1 1WS       0.096700
     33 H261        -0.3180     1.0850     4.2150 hx         1 1WS       0.126700
     34 H262         1.0870     0.6880     5.3280 hx         1 1WS       0.126700
     35 H271         0.0070     2.7480     5.9080 hn         1 1WS       0.475800
     36 H272         0.2950     3.4260     4.4070 hn         1 1WS       0.475800
     37 H41C         0.6200     2.0370    -2.0630 hc         1 1WS       0.074200
     38 H42C         0.0370     0.5590    -2.9310 hc         1 1WS       0.074200
     39 H31C         1.6820     2.9330    -3.9710 hc         1 1WS       0.084700
     40 H32C         0.2130     2.1290    -4.6620 hc         1 1WS       0.084700
     41 H10          4.7510    -1.2990    -2.6340 hn         1 1WS       0.365700
     42 H12          3.5020     0.3950    -7.7090 hn         1 1WS       0.350700
     43 H13          4.3810    -2.1990    -5.4650 hn         1 1WS       0.419800
     44 H19          5.4110    -3.5020    -7.1310 ha         1 1WS       0.156000
     45 H15          6.0120     0.8140    -6.8450 ha         1 1WS       0.146000
     46 H17          8.1600    -1.4920    -9.8070 ha         1 1WS       0.172000
     47 H16          7.6170     0.6970    -8.7240 ha         1 1WS       0.158000
     48 H273         1.5730     3.0710     5.4200 hn         1 1WS       0.475800
     49 H222         3.3280     0.0740     1.6140 hn         1 1WS       0.474800
@<TRIPOS>BOND
     1     1     2 2   
     2     2     3 1   
     3     2     8 1   
     4     3     4 1   
     5     3    28 1   
     6     3    49 1   
     7     4     5 1   
     8     4    29 1   
     9     4    30 1   
    10     5     6 1   
    11     5    31 1   
    12     5    32 1   
    13     6     7 1   
    14     6    33 1   
    15     6    34 1   
    16     7    35 1   
    17     7    36 1   
    18     7    48 1   
    19     8     9 1   
    20     8    12 2   
    21     9    10 1   
    22     9    14 2   
    23    10    11 1   
    24    10    37 1   
    25    10    38 1   
    26    11    19 1   
    27    11    39 1   
    28    11    40 1   
    29    12    13 1   
    30    13    14 1   
    31    13    41 1   
    32    14    15 1   
    33    15    16 2   
    34    15    19 1   
    35    16    17 1   
    36    16    20 1   
    37    17    18 1   
    38    17    42 1   
    39    18    19 2   
    40    20    21 1   
    41    20    43 1   
    42    21    22 ar  
    43    21    27 ar  
    44    22    23 ar  
    45    22    44 1   
    46    23    24 1   
    47    23    25 ar  
    48    25    26 ar  
    49    25    46 1   
    50    26    27 ar  
    51    26    47 1   
    52    27    45 1   
@<TRIPOS>SUBSTRUCTURE
     1 1WS         1 TEMP              0 ****  ****    0 ROOT
