@<TRIPOS>MOLECULE
1WV
   53    48     1     0     0
SMALL
bcc


@<TRIPOS>ATOM
      1 C10         1.0040   -1.2570    0.7140 c2        1 1WV     -0.173000
      2 C13        -2.6280    0.4410    2.1120 c3        1 1WV     -0.154000
      3 C17        -5.9340    1.1870    3.6550 c3        1 1WV     -0.130000
      4 C20       -10.0200   -0.0550    6.4820 c3        1 1WV     -0.061000
      5 C07         3.1320    0.1590   -1.9460 c2        1 1WV     -0.137000
      6 C08         2.1800   -0.5460   -1.3170 c2        1 1WV     -0.159000
      7 C09         1.9750   -0.5510    0.1160 c2        1 1WV     -0.129000
      8 C11         0.7850   -1.2760    2.1720 c3        1 1WV     -0.186000
      9 C12        -2.3370    0.3840    0.6340 c3        1 1WV     -0.219000
     10 C14        -3.8990    1.1820    2.3850 c2        1 1WV      0.312000
     11 O15        -4.2990    2.2520    1.9300 o         1 1WV     -0.336000
     12 O16        -4.7000    0.5430    3.2990 os        1 1WV     -0.331000
     13 C18        -6.7130    0.3070    4.5640 c1        1 1WV      0.021000
     14 O19        -6.2960   -0.8550    4.9260 oh        1 1WV     -0.144000
     15 H1          0.3100   -1.8790    0.1250 ha        1 1WV      0.118000
     16 H2         -2.6930   -0.5940    2.5410 hc        1 1WV      0.116500
     17 H3         -5.7120    2.1630    4.1670 h1        1 1WV      0.142500
     18 H4         -6.5330    1.4020    2.7280 h1        1 1WV      0.142500
     19 H5         -9.3850   -0.7420    7.0950 h1        1 1WV      0.058667
     20 H6        -10.9120    0.2700    7.0740 h1        1 1WV      0.058667
     21 H8          3.2160    0.1020   -3.0450 ha        1 1WV      0.122000
     22 H10         1.4910   -1.1770   -1.9040 ha        1 1WV      0.119000
     23 H12         1.5310   -0.6460    2.7160 hc        1 1WV      0.078667
     24 H13         2.6710    0.0680    0.7130 ha        1 1WV      0.126000
     25 H14        -3.1040   -0.2290    0.1020 hc        1 1WV      0.093333
     26 H15        -2.3400    1.4110    0.1940 hc        1 1WV      0.093333
     27 H16       -10.3510   -0.5860    5.5540 h1        1 1WV      0.058667
     28 H17        -5.4270   -1.1450    4.5720 ho        1 1WV      0.192000
     29 H18        -8.5410    0.8740    5.6550 ho        1 1WV      0.226000
     30 C1          4.1150    1.0380   -1.2740 c3        1 1WV     -0.139000
     31 C2          5.0580    1.7090   -2.2400 c3        1 1WV     -0.217000
     32 C3          4.5960    1.7910    1.9580 c3        1 1WV     -0.278000
     33 C4          6.9600    3.5740    0.0950 c1        1 1WV      0.169000
     34 C5          7.8400    4.4360    0.5480 c2        1 1WV     -0.477000
     35 C6          8.8190    5.1990   -0.2530 c3        1 1WV     -0.133000
     36 H7         -1.3320   -0.0780    0.4690 hc        1 1WV      0.093333
     37 H9         -1.8050    0.9860    2.6500 hc        1 1WV      0.116500
     38 H11        -0.2410   -0.8910    2.4100 hc        1 1WV      0.078667
     39 H19         0.8600   -2.3240    2.5590 hc        1 1WV      0.078667
     40 H20         4.7110    0.4380   -0.5300 hc        1 1WV      0.091500
     41 H21         3.5720    1.8240   -0.6780 hc        1 1WV      0.091500
     42 H22         5.6420    0.9510   -2.8160 hc        1 1WV      0.078000
     43 H23         4.4950    2.3440   -2.9660 hc        1 1WV      0.078000
     44 H24         5.7740    2.3600   -1.6760 hc        1 1WV      0.078000
     45 H25         3.5410    2.0830    1.7640 hc        1 1WV      0.069750
     46 H26         5.2540    2.2470    1.1820 hc        1 1WV      0.069750
     47 H27         4.6860    0.6830    1.9130 hc        1 1WV      0.069750
     48 H28         4.9010    2.1480    2.9660 hc        1 1WV      0.069750
     49 H29         7.8780    4.6350    1.6390 ha        1 1WV      0.188000
     50 H30         8.6490    6.2970   -0.1180 hc        1 1WV      0.084333
     51 H31         9.8580    4.9570    0.0840 hc        1 1WV      0.084333
     52 H32         8.7350    4.9600   -1.3410 hc        1 1WV      0.084333
     53 O21        -9.3270    1.1280    6.1670 oh        1 1WV     -0.351000
@<TRIPOS>BOND
     1    1    7 1   
     2    1    8 1   
     3    1   15 1   
     4    2    9 1   
     5    2   10 1   
     6    2   16 1   
     7    2   37 1   
     8    3   12 1   
     9    3   13 1   
    10    3   17 1   
    11    3   18 1   
    12    4   19 1   
    13    4   20 1   
    14    4   27 1   
    15    4   53 1   
    16    5    6 1   
    17    5   21 1   
    18    5   30 1   
    19    6    7 1   
    20    6   22 1   
    21    7   24 1   
    22    8   23 1   
    23    8   38 1   
    24    8   39 1   
    25    9   25 1   
    26    9   26 1   
    27    9   36 1   
    28   10   11 1   
    29   10   12 1   
    30   13   14 1   
    31   14   28 1   
    32   29   53 1   
    33   30   31 1   
    34   30   40 1   
    35   30   41 1   
    36   31   42 1   
    37   31   43 1   
    38   31   44 1   
    39   32   45 1   
    40   32   46 1   
    41   32   47 1   
    42   32   48 1   
    43   33   34 1   
    44   34   35 1   
    45   34   49 1   
    46   35   50 1   
    47   35   51 1   
    48   35   52 1   
@<TRIPOS>SUBSTRUCTURE
     1 1WV         1 TEMP              0 ****  ****    0 ROOT
