@<TRIPOS>MOLECULE
molecule
   53    52     1     0     0
SMALL
bcc


@<TRIPOS>ATOM
      1 C10          0.0000     0.0000     0.0000 c3         1 1WV      -0.075400
      2 C13         -2.5510    -0.0000     2.8850 c3         1 1WV      -0.126400
      3 C17         -6.1780    -0.0010     3.9700 c3         1 1WV       0.136400
      4 C20         -8.2860    -0.1270     5.3060 c3         1 1WV       0.132400
      5 C07          2.8840     0.9150    -1.8140 c2         1 1WV      -0.174200
      6 C08          2.0320     0.0000    -1.4210 c2         1 1WV      -0.177200
      7 C09          1.5300     0.0000     0.0000 c3         1 1WV      -0.057200
      8 C11         -0.5100     0.0000     1.4420 c3         1 1WV      -0.084400
      9 C12         -2.0400    -0.0010     1.4410 c3         1 1WV      -0.072400
     10 C14         -4.0570    -0.0010     2.8840 c          1 1WV       0.632100
     11 O15         -4.6610    -0.0000     1.8370 o          1 1WV      -0.551000
     12 O16         -4.7290    -0.0010     4.0460 os         1 1WV      -0.428900
     13 C18         -6.7630    -0.0020     5.3840 c3         1 1WV       0.149100
     14 O19         -6.4190     1.2200     6.0420 oh         1 1WV      -0.591800
     15 H1          -0.3610     0.8840    -0.5110 hc         1 1WV       0.046200
     16 H2          -2.1890    -0.8840     3.3960 hc         1 1WV       0.072200
     17 H3          -6.5130    -0.8840     3.4410 h1         1 1WV       0.058700
     18 H4          -6.5120     0.8850     3.4420 h1         1 1WV       0.058700
     19 H5          -8.5470    -1.0070     4.7310 h1         1 1WV       0.032200
     20 H6          -8.6970     0.7530     4.8260 h1         1 1WV       0.032200
     21 H8           3.2430     0.9130    -2.8360 ha         1 1WV       0.124000
     22 H10          1.6880    -0.7550    -2.1170 ha         1 1WV       0.124000
     23 H12          1.8910     0.8840     0.5110 hc         1 1WV       0.050200
     24 H13          1.8910    -0.8850     0.5100 hc         1 1WV       0.050200
     25 H14         -0.1500     0.8850     1.9530 hc         1 1WV       0.040200
     26 H15         -2.4010    -0.8850     0.9310 hc         1 1WV       0.059700
     27 H16         -6.3600    -0.8390     5.9410 h1         1 1WV       0.053700
     28 H17         -5.9070     1.0290     6.8110 ho         1 1WV       0.412000
     29 H18         -9.7460    -0.4260     6.5750 ho         1 1WV       0.407000
     30 C1           3.4930     1.8600    -0.8100 c3         1 1WV      -0.057200
     31 C2           5.0160     1.8390    -0.9480 c3         1 1WV      -0.077400
     32 C3           5.6330     2.7980     0.0720 c3         1 1WV      -0.082400
     33 C4           7.1570     2.7780    -0.0650 c3         1 1WV      -0.081400
     34 C5           7.7740     3.7370     0.9540 c3         1 1WV      -0.084400
     35 C6           9.2980     3.7150     0.8170 c3         1 1WV      -0.092100
     36 H7          -0.3610    -0.8850    -0.5110 hc         1 1WV       0.046200
     37 H9          -2.1900     0.8850     3.3950 hc         1 1WV       0.072200
     38 H11         -0.1490    -0.8840     1.9530 hc         1 1WV       0.040200
     39 H19         -2.4020     0.8840     0.9300 hc         1 1WV       0.059700
     40 H20          3.2160     1.5520     0.1910 hc         1 1WV       0.050700
     41 H21          3.1280     2.8640    -0.9920 hc         1 1WV       0.050700
     42 H22          5.2920     2.1480    -1.9480 hc         1 1WV       0.042700
     43 H23          5.3800     0.8350    -0.7660 hc         1 1WV       0.042700
     44 H24          5.2680     3.8010    -0.1090 hc         1 1WV       0.040700
     45 H25          5.3570     2.4880     1.0730 hc         1 1WV       0.040700
     46 H26          7.4330     3.0870    -1.0660 hc         1 1WV       0.041700
     47 H27          7.5220     1.7740     0.1160 hc         1 1WV       0.041700
     48 H28          7.4970     3.4280     1.9550 hc         1 1WV       0.039700
     49 H29          7.4100     4.7410     0.7720 hc         1 1WV       0.039700
     50 H30          9.7350     4.3910     1.5430 hc         1 1WV       0.032367
     51 H31          9.6620     2.7110     0.9940 hc         1 1WV       0.032367
     52 H32          9.5750     4.0300    -0.1810 hc         1 1WV       0.032367
     53 O21         -8.8220    -0.2440     6.6260 oh         1 1WV      -0.605800
@<TRIPOS>BOND
     1     4    53 1
     2     4    13 1
     3    14    13 1
     4    13     3 1
     5     3    12 1
     6    12    10 1
     7    10    11 2
     8    10     2 1
     9     2     9 1
    10     9     8 1
    11     8     1 1
    12     1     7 1
    13     7     6 1
    14     6     5 2
    15     1    15 1
    16     2    16 1
    17     3    17 1
    18     3    18 1
    19     4    19 1
    20     4    20 1
    21     5    21 1
    22     6    22 1
    23     7    23 1
    24     7    24 1
    25     8    25 1
    26     9    26 1
    27    13    27 1
    28    14    28 1
    29    53    29 1
    30     5    30 1
    31    30    31 1
    32    31    32 1
    33    32    33 1
    34    33    34 1
    35    34    35 1
    36     1    36 1
    37     2    37 1
    38     8    38 1
    39     9    39 1
    40    30    40 1
    41    30    41 1
    42    31    42 1
    43    31    43 1
    44    32    44 1
    45    32    45 1
    46    33    46 1
    47    33    47 1
    48    34    48 1
    49    34    49 1
    50    35    50 1
    51    35    51 1
    52    35    52 1
@<TRIPOS>SUBSTRUCTURE
     1 1WV         1 TEMP              0 ****  ****    0 ROOT
