@<TRIPOS>MOLECULE
1WW
   35    36     1     0     0
SMALL
bcc


@<TRIPOS>ATOM
      1 C1           0.0000     0.0000     0.0000 ca         1 1WW      -0.079000
      2 Cl1          4.0330     7.2750    -4.5970 cl         1 1WW      -0.061400
      3 C2           1.3830     0.0000     0.0000 ca         1 1WW      -0.106300
      4 C3           2.0740     0.0000     1.1970 ca         1 1WW      -0.079000
      5 C4          -0.6910    -0.0010     1.1970 ca         1 1WW      -0.093000
      6 C5           1.3830    -0.0010     2.3940 ca         1 1WW      -0.093000
      7 C6           0.0000    -0.0070     2.3940 ca         1 1WW       0.211900
      8 I7          -1.0460    -0.0080     4.2090 i          1 1WW      -0.320900
      9 C8           2.1360     0.0010    -1.3050 c3         1 1WW       0.115300
     10 N9           2.3800     1.3820    -1.7280 ns         1 1WW      -0.237900
     11 C10          3.0420     1.6290    -2.8760 c          1 1WW       0.587700
     12 O11          3.4370     0.7050    -3.5600 o          1 1WW      -0.574100
     13 C12          3.9760     3.2800    -4.4940 ca         1 1WW       0.243100
     14 C13          3.2870     3.0190    -3.3010 ca         1 1WW      -0.218600
     15 C14          2.8340     4.0840    -2.5180 ca         1 1WW      -0.042000
     16 C15          4.2010     4.5910    -4.8850 ca         1 1WW      -0.238000
     17 C16          3.0660     5.3820    -2.9210 ca         1 1WW      -0.194000
     18 C17          3.7470     5.6350    -4.1020 ca         1 1WW       0.041400
     19 C20          5.1180     2.5970    -6.4620 c3         1 1WW       0.068400
     20 C21          5.5390     1.3380    -7.1750 c          1 1WW       0.972600
     21 O22          5.2720     0.2580    -6.7030 o          1 1WW      -0.874800
     22 O23          6.2090     1.4160    -8.3360 o          1 1WW      -0.874800
     23 H1          -0.5420     0.0020    -0.9380 ha         1 1WW       0.117000
     24 H3           3.1580     0.0020     1.1970 ha         1 1WW       0.117000
     25 H4          -1.7750    -0.0030     1.1970 ha         1 1WW       0.116000
     26 H5           1.9250    -0.0030     3.3320 ha         1 1WW       0.116000
     27 H8           3.0820    -0.5100    -1.1760 h1         1 1WW       0.031700
     28 H8A          1.5500    -0.5100    -2.0600 h1         1 1WW       0.031700
     29 HN9          2.0550     2.1430    -1.1650 hn         1 1WW       0.175500
     30 H14          2.3020     3.8890    -1.5950 ha         1 1WW       0.093000
     31 H15          4.7320     4.7980    -5.8060 ha         1 1WW       0.149000
     32 H16          2.7140     6.2060    -2.3130 ha         1 1WW       0.108000
     33 H20          5.9950     3.1850    -6.2180 h1         1 1WW      -0.003300
     34 H20A         4.4640     3.1750    -7.1040 h1         1 1WW      -0.003300
     35 O19          4.4250     2.2550    -5.2600 os         1 1WW      -0.202900
@<TRIPOS>BOND
     1     1     3 ar  
     2     1     5 ar  
     3     1    23 1   
     4     2    18 1   
     5     3     4 ar  
     6     3     9 1   
     7     4     6 ar  
     8     4    24 1   
     9     5     7 ar  
    10     5    25 1   
    11     6     7 ar  
    12     6    26 1   
    13     7     8 1   
    14     9    10 1   
    15     9    27 1   
    16     9    28 1   
    17    10    11 1   
    18    10    29 1   
    19    11    12 2   
    20    11    14 1   
    21    13    14 ar  
    22    13    16 ar  
    23    13    35 1   
    24    14    15 ar  
    25    15    17 ar  
    26    15    30 1   
    27    16    18 ar  
    28    16    31 1   
    29    17    18 ar  
    30    17    32 1   
    31    19    20 1   
    32    19    33 1   
    33    19    34 1   
    34    19    35 1   
    35    20    21 1   
    36    20    22 1   
@<TRIPOS>SUBSTRUCTURE
     1 1WW         1 TEMP              0 ****  ****    0 ROOT
