@<TRIPOS>MOLECULE
1WW
   36    37     1     0     0
SMALL
bcc


@<TRIPOS>ATOM
      1 C1           0.5860     1.3630     0.2550 ca         1 1WW      -0.120500
      2 Cl1         -3.4840    -2.2940    -6.7340 cl         1 1WW      -0.063400
      3 C2           1.3790     0.2110     0.2650 ca         1 1WW      -0.104300
      4 C3           1.5470    -0.5020     1.4540 ca         1 1WW      -0.120500
      5 C4          -0.0320     1.7990     1.4260 ca         1 1WW      -0.099500
      6 C5           0.9310    -0.0640     2.6260 ca         1 1WW      -0.099500
      7 C6           0.1400     1.0850     2.6140 ca         1 1WW       0.027900
      8 I7          -0.7550     1.7160     4.3120 i          1 1WW      -0.141900
      9 C8           2.0630    -0.2320    -0.9990 c3         1 1WW       0.135300
     10 N9           1.1840    -0.7950    -1.9880 ns         1 1WW      -0.551900
     11 C10          0.6140    -0.0350    -2.9840 c          1 1WW       0.676700
     12 O11          0.9040     1.1730    -3.1230 o          1 1WW      -0.611100
     13 C12         -0.3300    -2.0130    -4.3350 ca         1 1WW       0.119100
     14 C13         -0.3750    -0.6790    -3.9000 ca         1 1WW      -0.143600
     15 C14         -1.4140     0.1380    -4.3720 ca         1 1WW      -0.056000
     16 C15         -1.2900    -2.5220    -5.2210 ca         1 1WW      -0.182000
     17 C16         -2.3780    -0.3530    -5.2460 ca         1 1WW      -0.141000
     18 C17         -2.3140    -1.6860    -5.6690 ca         1 1WW       0.057400
     19 C20          1.4010    -3.5810    -4.7930 c3         1 1WW       0.033400
     20 C21          0.8760    -4.9870    -4.9440 c          1 1WW       0.596100
     21 O22         -0.1030    -5.4470    -4.1180 oh         1 1WW      -0.572100
     22 O23          1.2680    -5.8040    -5.7760 o          1 1WW      -0.478000
     23 O19          0.6470    -2.8590    -3.8170 os         1 1WW      -0.355900
     24 H1           0.4580     1.9240    -0.6870 ha         1 1WW       0.146500
     25 H3           2.1710    -1.4080     1.4730 ha         1 1WW       0.146500
     26 H4          -0.6510     2.7090     1.4040 ha         1 1WW       0.146000
     27 H5           1.0750    -0.6340     3.5570 ha         1 1WW       0.146000
     28 H8           2.8410    -1.0110    -0.7500 h1         1 1WW       0.071200
     29 H8A          2.5860     0.6620    -1.4520 h1         1 1WW       0.071200
     30 HN9         -0.3430    -4.7620    -3.4730 ho         1 1WW       0.441000
     31 H14         -1.4440     1.1940    -4.0500 ha         1 1WW       0.170000
     32 H15         -1.2300    -3.5730    -5.5480 ha         1 1WW       0.165000
     33 H16         -3.1840     0.3060    -5.6060 ha         1 1WW       0.161000
     34 H20          1.4080    -3.0680    -5.7880 h1         1 1WW       0.104700
     35 H20A         2.4430    -3.6200    -4.3690 h1         1 1WW       0.104700
     36 H92          0.8680    -1.7260    -1.8490 hn         1 1WW       0.323500
@<TRIPOS>BOND
     1     1     3 ar  
     2     1     5 ar  
     3     1    24 1   
     4     2    18 1   
     5     3     4 ar  
     6     3     9 1   
     7     4     6 ar  
     8     4    25 1   
     9     5     7 ar  
    10     5    26 1   
    11     6     7 ar  
    12     6    27 1   
    13     7     8 1   
    14     9    10 1   
    15     9    28 1   
    16     9    29 1   
    17    10    11 1   
    18    10    36 1   
    19    11    12 2   
    20    11    14 1   
    21    13    14 ar  
    22    13    16 ar  
    23    13    23 1   
    24    14    15 ar  
    25    15    17 ar  
    26    15    31 1   
    27    16    18 ar  
    28    16    32 1   
    29    17    18 ar  
    30    17    33 1   
    31    19    20 1   
    32    19    23 1   
    33    19    34 1   
    34    19    35 1   
    35    20    21 1   
    36    20    22 2   
    37    21    30 1   
@<TRIPOS>SUBSTRUCTURE
     1 1WW         1 TEMP              0 ****  ****    0 ROOT
