@<TRIPOS>MOLECULE
molecule
   35    36     1     0     0
SMALL
bcc


@<TRIPOS>ATOM
      1 C1           0.0000     0.0000     0.0000 ca         1 1WX      -0.128300
      2 C2           1.3850     0.0000     0.0000 ca         1 1WX       0.127400
      3 C3          -0.6920     0.0000     1.1980 ca         1 1WX       0.127400
      4 C4           2.0780     0.0000     1.2010 ca         1 1WX       0.122900
      5 C5           0.0010     0.0000     2.3990 ca         1 1WX       0.122900
      6 C6           1.3850     0.0000     2.3990 ca         1 1WX      -0.069900
      7 C7          -0.7530     0.0060    -1.3050 c3         1 1WX       0.167300
      8 C9          -1.6600    -1.6150    -2.8820 c          1 1WX       0.666700
      9 C10         -1.9060    -3.0030    -3.3140 ca         1 1WX      -0.200600
     10 C11         -2.5900    -3.2580    -4.5110 ca         1 1WX       0.229100
     11 C12         -1.4540    -4.0710    -2.5360 ca         1 1WX      -0.066000
     12 C13         -2.8110    -4.5670    -4.9120 ca         1 1WX      -0.237000
     13 C14         -1.6860    -5.3660    -2.9440 ca         1 1WX      -0.205000
     14 C15         -2.3580    -5.6150    -4.1320 ca         1 1WX       0.091400
     15 C18         -3.7230    -2.5660    -6.4810 c3         1 1WX       0.006400
     16 C19         -4.1380    -1.3020    -7.1920 c          1 1WX       0.894600
     17 O21         -4.8030    -1.3750    -8.3550 o          1 1WX      -0.816800
     18 O20         -3.8710    -0.2250    -6.7130 o          1 1WX      -0.816800
     19 O17         -3.0340    -2.2290    -5.2740 os         1 1WX      -0.232900
     20 Cl2         -2.6400    -7.2510    -4.6390 cl         1 1WX      -0.130400
     21 O16         -2.0550    -0.6870    -3.5630 o          1 1WX      -0.531100
     22 N8          -0.9980    -1.3730    -1.7340 ns         1 1WX      -0.603900
     23 F27         -2.0420     0.0000     1.1990 f          1 1WX      -0.100900
     24 F24          2.0600    -0.0010    -1.1700 f          1 1WX      -0.100900
     25 F25          3.4290    -0.0000     1.1990 f          1 1WX      -0.106900
     26 F26         -0.6740     0.0010     3.5700 f          1 1WX      -0.106900
     27 Br2          2.3320     0.0020     4.0370 br         1 1WX      -0.034100
     28 H1          -1.7000     0.5160    -1.1730 h1         1 1WX       0.078700
     29 H2          -0.1680     0.5200    -2.0570 h1         1 1WX       0.078700
     30 H3          -0.9290    -3.8810    -1.6070 ha         1 1WX       0.118000
     31 H4          -3.3370    -4.7690    -5.8370 ha         1 1WX       0.167000
     32 H5          -1.3350    -6.1930    -2.3400 ha         1 1WX       0.130000
     33 H6          -4.6030    -3.1510    -6.2430 h1         1 1WX       0.029700
     34 H7          -3.0670    -3.1420    -7.1220 h1         1 1WX       0.029700
     35 H9          -0.6720    -2.1360    -1.1740 hn         1 1WX       0.306500
@<TRIPOS>BOND
     1    18    16 1
     2    15    16 1
     3    15    19 1
     4    20    14 1
     5    16    17 1
     6    12    14 ar
     7    12    10 ar
     8    19    10 1
     9    14    13 ar
    10    10     9 ar
    11    13    11 ar
    12     9    11 ar
    13     9     8 1
    14    22     8 1
    15    22     7 1
    16     8    21 2
    17     7     1 1
    18    24     2 1
    19     1     2 ar
    20     1     3 ar
    21     2     4 ar
    22    23     3 1
    23     3     5 ar
    24     4    25 1
    25     4     6 ar
    26     5     6 ar
    27     5    26 1
    28     6    27 1
    29     7    28 1
    30     7    29 1
    31    11    30 1
    32    12    31 1
    33    13    32 1
    34    15    33 1
    35    15    34 1
    36    22    35 1
@<TRIPOS>SUBSTRUCTURE
     1 1WX         1 TEMP              0 ****  ****    0 ROOT
