@<TRIPOS>MOLECULE
1WX
   35    36     1     0     0
SMALL
bcc


@<TRIPOS>ATOM
      1 C1           0.0000     0.0000     0.0000 ca         1 1WX      -0.121300
      2 C2           1.3850     0.0000     0.0000 ca         1 1WX       0.115400
      3 C3          -0.6920     0.0000     1.1980 ca         1 1WX       0.115400
      4 C4           2.0780     0.0000     1.2010 ca         1 1WX       0.109900
      5 C5           0.0010     0.0000     2.3990 ca         1 1WX       0.109900
      6 C6           1.3850     0.0000     2.3990 ca         1 1WX      -0.026900
      7 C7          -0.7530     0.0060    -1.3050 c3         1 1WX       0.116300
      8 C9          -1.6600    -1.6150    -2.8820 c          1 1WX       0.591700
      9 C10         -1.9060    -3.0030    -3.3140 ca         1 1WX      -0.219600
     10 C11         -2.5900    -3.2580    -4.5110 ca         1 1WX       0.245100
     11 C12         -1.4540    -4.0710    -2.5360 ca         1 1WX      -0.040000
     12 C13         -2.8110    -4.5670    -4.9120 ca         1 1WX      -0.237000
     13 C14         -1.6860    -5.3660    -2.9440 ca         1 1WX      -0.193000
     14 C15         -2.3580    -5.6150    -4.1320 ca         1 1WX       0.041400
     15 C18         -3.7230    -2.5660    -6.4810 c3         1 1WX       0.067400
     16 C19         -4.1380    -1.3020    -7.1920 c          1 1WX       0.972600
     17 O21         -4.8030    -1.3750    -8.3550 o          1 1WX      -0.873800
     18 O20         -3.8710    -0.2250    -6.7130 o          1 1WX      -0.873800
     19 O17         -3.0340    -2.2290    -5.2740 os         1 1WX      -0.202900
     20 Cl2         -2.6400    -7.2510    -4.6390 cl         1 1WX      -0.059400
     21 O16         -2.0550    -0.6870    -3.5630 o          1 1WX      -0.568100
     22 N8          -0.9980    -1.3730    -1.7340 ns         1 1WX      -0.236900
     23 F27         -2.0420     0.0000     1.1990 f          1 1WX      -0.097900
     24 F24          2.0600    -0.0010    -1.1700 f          1 1WX      -0.097900
     25 F25          3.4290    -0.0000     1.1990 f          1 1WX      -0.103900
     26 F26         -0.6740     0.0010     3.5700 f          1 1WX      -0.103900
     27 Br2          2.3320     0.0020     4.0370 br         1 1WX      -0.041100
     28 H1          -1.7000     0.5160    -1.1730 h1         1 1WX       0.046700
     29 H2          -0.1680     0.5200    -2.0570 h1         1 1WX       0.046700
     30 H3          -0.9290    -3.8810    -1.6070 ha         1 1WX       0.091000
     31 H4          -3.3370    -4.7690    -5.8370 ha         1 1WX       0.150000
     32 H5          -1.3350    -6.1930    -2.3400 ha         1 1WX       0.108000
     33 H6          -4.6030    -3.1510    -6.2430 h1         1 1WX      -0.002300
     34 H7          -3.0670    -3.1420    -7.1220 h1         1 1WX      -0.002300
     35 H9          -0.6720    -2.1360    -1.1740 hn         1 1WX       0.174500
@<TRIPOS>BOND
     1     1     2 ar  
     2     1     3 ar  
     3     1     7 1   
     4     2     4 ar  
     5     2    24 1   
     6     3     5 ar  
     7     3    23 1   
     8     4     6 ar  
     9     4    25 1   
    10     5     6 ar  
    11     5    26 1   
    12     6    27 1   
    13     7    22 1   
    14     7    28 1   
    15     7    29 1   
    16     8     9 1   
    17     8    21 2   
    18     8    22 1   
    19     9    10 ar  
    20     9    11 ar  
    21    10    12 ar  
    22    10    19 1   
    23    11    13 ar  
    24    11    30 1   
    25    12    14 ar  
    26    12    31 1   
    27    13    14 ar  
    28    13    32 1   
    29    14    20 1   
    30    15    16 1   
    31    15    19 1   
    32    15    33 1   
    33    15    34 1   
    34    16    17 1   
    35    16    18 1   
    36    22    35 1   
@<TRIPOS>SUBSTRUCTURE
     1 1WX         1 TEMP              0 ****  ****    0 ROOT
