@<TRIPOS>MOLECULE
1WX
   36    37     1     0     0
SMALL
bcc


@<TRIPOS>ATOM
      1 C1          -0.0600     0.0310     0.3480 ca         1 1WX      -0.121300
      2 C2           0.9110     0.9100     0.8580 ca         1 1WX       0.109900
      3 C3          -0.3450    -1.1410     1.0660 ca         1 1WX       0.109900
      4 C4           1.5940     0.6250     2.0710 ca         1 1WX       0.130900
      5 C5           0.3340    -1.4320     2.2840 ca         1 1WX       0.130900
      6 C6           1.3100    -0.5520     2.7940 ca         1 1WX      -0.066900
      7 C7          -0.8010     0.3600    -0.9230 c3         1 1WX       0.138300
      8 C9           0.0280    -0.2940    -3.1520 c          1 1WX       0.683700
      9 C10          1.0100    -0.0490    -4.2500 ca         1 1WX      -0.145600
     10 C11          1.3960     1.2170    -4.7160 ca         1 1WX       0.121100
     11 C12          1.5590    -1.1830    -4.8680 ca         1 1WX      -0.054000
     12 C13          2.3070     1.3550    -5.7740 ca         1 1WX      -0.183000
     13 C14          2.4680    -1.0630    -5.9150 ca         1 1WX      -0.142000
     14 C15          2.8400     0.2090    -6.3650 ca         1 1WX       0.059400
     15 C18          0.3930     3.3680    -4.9170 c3         1 1WX       0.032400
     16 C19          1.4230     4.4440    -5.1540 c          1 1WX       0.596100
     17 O21          2.5930     4.4390    -4.4600 oh         1 1WX      -0.570100
     18 O20          1.3020     5.3760    -5.9480 o          1 1WX      -0.478000
     19 O17          0.9090     2.3450    -4.0630 os         1 1WX      -0.354900
     20 Cl2          3.9470     0.3650    -7.6390 cl         1 1WX      -0.062400
     21 O16         -0.7700    -1.2510    -3.2170 o          1 1WX      -0.597100
     22 N8           0.0520     0.5470    -2.0590 ns         1 1WX      -0.562900
     23 F27         -1.2730    -2.0170     0.6220 f          1 1WX      -0.110900
     24 F24          1.2090     2.0550     0.2010 f          1 1WX      -0.110900
     25 F25          2.5150     1.5160     2.4990 f          1 1WX      -0.098900
     26 F26          0.0090    -2.5770     2.9230 f          1 1WX      -0.098900
     27 Br2          2.2080    -0.9360     4.3930 br         1 1WX      -0.009100
     28 H1          -1.5440    -0.4620    -1.1490 h1         1 1WX       0.087200
     29 H2          -1.3720     1.3180    -0.7360 h1         1 1WX       0.087200
     30 H3           1.2430    -2.1810    -4.5190 ha         1 1WX       0.170000
     31 H4           2.5960     2.3610    -6.1210 ha         1 1WX       0.165000
     32 H5           2.8860    -1.9650    -6.3880 ha         1 1WX       0.161000
     33 H6          -0.4690     3.8040    -4.3390 h1         1 1WX       0.104700
     34 H7           0.0340     2.9600    -5.8970 h1         1 1WX       0.104700
     35 H9           0.6800     1.3180    -2.0440 hn         1 1WX       0.330500
     36 H82          2.6070     3.6960    -3.8360 ho         1 1WX       0.441000
@<TRIPOS>BOND
     1     1     2 ar  
     2     1     3 ar  
     3     1     7 1   
     4     2     4 ar  
     5     2    24 1   
     6     3     5 ar  
     7     3    23 1   
     8     4     6 ar  
     9     4    25 1   
    10     5     6 ar  
    11     5    26 1   
    12     6    27 1   
    13     7    22 1   
    14     7    28 1   
    15     7    29 1   
    16     8     9 1   
    17     8    21 2   
    18     8    22 1   
    19     9    10 ar  
    20     9    11 ar  
    21    10    12 ar  
    22    10    19 1   
    23    11    13 ar  
    24    11    30 1   
    25    12    14 ar  
    26    12    31 1   
    27    13    14 ar  
    28    13    32 1   
    29    14    20 1   
    30    15    16 1   
    31    15    19 1   
    32    15    33 1   
    33    15    34 1   
    34    16    17 1   
    35    16    18 2   
    36    17    36 1   
    37    22    35 1   
@<TRIPOS>SUBSTRUCTURE
     1 1WX         1 TEMP              0 ****  ****    0 ROOT
