@<TRIPOS>MOLECULE
1WY
   50    53     1     0     0
SMALL
bcc


@<TRIPOS>ATOM
      1 C2           0.0900     0.3790    -0.0570 ca         1 1WY       0.870900
      2 C3           2.1150     0.0450     1.0730 ca         1 1WY       0.594100
      3 C5           1.4190     0.1050     2.3100 ca         1 1WY      -0.285200
      4 C6           0.0210     0.2970     2.2580 ca         1 1WY       0.471200
      5 C8          -0.0570     0.3110    -2.5140 ca         1 1WY       0.122600
      6 C11          1.6100     0.7160    -4.2600 ca         1 1WY       0.050600
      7 C12         -0.1700    -0.8970    -4.6390 ca         1 1WY      -0.166000
      8 C15         -2.5920    -2.0110    -3.7810 c3         1 1WY       0.117700
      9 C17          3.2950     2.5630    -4.3120 c          1 1WY       0.663100
     10 C19          4.5820     2.9960    -4.9990 c3         1 1WY      -0.151400
     11 C23          4.5090     0.4400     1.8450 cc         1 1WY      -0.054100
     12 C24          4.2680    -1.0120     0.0860 ca         1 1WY      -0.052800
     13 C27          3.8900    -1.8540    -0.9600 ca         1 1WY      -0.070000
     14 C30          6.2340    -2.4130    -1.3230 ca         1 1WY      -0.116000
     15 Cl1          2.1660    -0.0800     3.8140 cl         1 1WY      -0.074400
     16 C22          3.5510    -0.1650     1.0210 cd         1 1WY      -0.233000
     17 C28          4.8740    -2.5450    -1.6530 ca         1 1WY      -0.159000
     18 C29          6.6540    -1.5870    -0.2920 ca         1 1WY      -0.146000
     19 C26          5.6700    -0.8810     0.4170 ca         1 1WY      -0.056200
     20 N25          5.7830     0.0120     1.4890 na         1 1WY      -0.186400
     21 N1           1.4550     0.1720    -0.1060 nb         1 1WY      -0.727000
     22 N4          -0.6620     0.4300     1.1190 nb         1 1WY      -0.737000
     23 N7          -0.6170     0.6340    -1.2540 nu         1 1WY      -0.683300
     24 C10         -0.6870    -0.6400    -3.3690 ca         1 1WY       0.067100
     25 C13          0.9660    -0.2330    -5.0840 ca         1 1WY      -0.158000
     26 C9           1.0870     0.9810    -2.9770 ca         1 1WY      -0.093000
     27 N16          2.7700     1.3490    -4.7400 ns         1 1WY      -0.478100
     28 O18          2.7570     3.2510    -3.4280 o          1 1WY      -0.580100
     29 C20          5.0190     4.3560    -4.5220 c3         1 1WY      -0.087100
     30 H1          -0.5810     0.3400     3.1860 h4         1 1WY       0.037100
     31 H2          -0.6530    -1.6310    -5.2990 ha         1 1WY       0.139000
     32 H3          -2.8900    -1.3740    -4.6480 h1         1 1WY       0.044700
     33 H4          -2.0350    -2.9150    -4.1310 h1         1 1WY       0.044700
     34 H5          -3.4880    -2.3120    -3.1810 h1         1 1WY       0.044700
     35 H6           4.4240     3.0140    -6.1100 hc         1 1WY       0.061700
     36 H7           5.3800     2.2380    -4.7770 hc         1 1WY       0.061700
     37 H8           4.3660     1.1550     2.6590 h4         1 1WY       0.177000
     38 H9           2.8290    -1.9590    -1.2300 ha         1 1WY       0.151000
     39 H10          6.9810    -2.9820    -1.8970 ha         1 1WY       0.128000
     40 H11          4.5890    -3.2120    -2.4790 ha         1 1WY       0.129000
     41 H12          7.7170    -1.4880    -0.0370 ha         1 1WY       0.131000
     42 H13          6.6260     0.2940     1.9110 hn         1 1WY       0.301700
     43 H14         -1.6010     0.4460    -1.1960 hn         1 1WY       0.447800
     44 H15          1.3550    -0.4620    -6.0880 ha         1 1WY       0.131000
     45 H16          1.5790     1.7280    -2.3280 ha         1 1WY       0.192000
     46 H17          3.2230     0.8950    -5.5000 hn         1 1WY       0.313500
     47 H18          5.9710     4.6480    -5.0260 hc         1 1WY       0.047700
     48 H19          4.2370     5.1210    -4.7510 hc         1 1WY       0.047700
     49 H20          5.1770     4.3500    -3.4170 hc         1 1WY       0.047700
     50 O14         -1.8050    -1.2750    -2.8530 os         1 1WY      -0.339900
@<TRIPOS>BOND
     1     1    21 ar  
     2     1    22 ar  
     3     1    23 1   
     4     2     3 ar  
     5     2    16 1   
     6     2    21 ar  
     7     3     4 ar  
     8     3    15 1   
     9     4    22 ar  
    10     4    30 1   
    11     5    23 1   
    12     5    24 ar  
    13     5    26 ar  
    14     6    25 ar  
    15     6    26 ar  
    16     6    27 1   
    17     7    24 ar  
    18     7    25 ar  
    19     7    31 1   
    20     8    32 1   
    21     8    33 1   
    22     8    34 1   
    23     8    50 1   
    24     9    10 1   
    25     9    27 1   
    26     9    28 2   
    27    10    29 1   
    28    10    35 1   
    29    10    36 1   
    30    11    16 2   
    31    11    20 1   
    32    11    37 1   
    33    12    13 ar  
    34    12    16 1   
    35    12    19 ar  
    36    13    17 ar  
    37    13    38 1   
    38    14    17 ar  
    39    14    18 ar  
    40    14    39 1   
    41    17    40 1   
    42    18    19 ar  
    43    18    41 1   
    44    19    20 1   
    45    20    42 1   
    46    23    43 1   
    47    24    50 1   
    48    25    44 1   
    49    26    45 1   
    50    27    46 1   
    51    29    47 1   
    52    29    48 1   
    53    29    49 1   
@<TRIPOS>SUBSTRUCTURE
     1 1WY         1 TEMP              0 ****  ****    0 ROOT
