@<TRIPOS>MOLECULE
1WY
   50    53     1     0     0
SMALL
bcc


@<TRIPOS>ATOM
      1 C2           0.0000     0.0000     0.0000 ca         1 1WY       0.701900
      2 C3           2.0010     0.0000     1.1480 ca         1 1WY       0.589100
      3 C5           1.2910    -0.0000     2.3550 ca         1 1WY      -0.354200
      4 C6          -0.0910     0.0060     2.3050 ca         1 1WY       0.491200
      5 C8          -2.0680     0.1340    -1.2350 ca         1 1WY      -0.019400
      6 C11         -4.0990     0.9590    -0.2530 ca         1 1WY      -0.109400
      7 C12         -4.1850    -0.3060    -2.2910 ca         1 1WY      -0.173000
      8 C15         -2.9920    -1.6920    -4.2830 c3         1 1WY       0.249700
      9 C17         -5.9730     1.2600     1.1850 c          1 1WY       0.555100
     10 C19         -6.7290     2.0780     2.1990 c3         1 1WY      -0.098400
     11 C23          4.2920     0.8200     1.8620 cc         1 1WY      -0.239100
     12 C24          4.3590    -0.8900     0.3690 ca         1 1WY      -0.060800
     13 C27          4.1310    -1.9260    -0.5350 ca         1 1WY      -0.039000
     14 C30          6.5000    -2.2110    -0.7860 ca         1 1WY      -0.086000
     15 Cl1          2.1260     0.0000     3.8770 cl         1 1WY      -0.002400
     16 C22          3.4800    -0.0010     1.1460 cd         1 1WY      -0.242000
     17 C28          5.2010    -2.5800    -1.1060 ca         1 1WY      -0.127000
     18 C29          6.7390    -1.1760     0.0910 ca         1 1WY      -0.101000
     19 C26          5.6730    -0.5100     0.6870 ca         1 1WY      -0.236200
     20 N25          5.5950     0.5250     1.5960 na         1 1WY       0.371600
     21 N1           1.3230     0.0000     0.0000 nb         1 1WY      -0.675000
     22 N4          -0.6980     0.0060     1.1270 nb         1 1WY      -0.693000
     23 N7          -0.6750     0.0010    -1.2110 nu         1 1WY      -0.262300
     24 C10         -2.8070    -0.4390    -2.2690 ca         1 1WY       0.107100
     25 C13         -4.8310     0.3860    -1.2850 ca         1 1WY      -0.073000
     26 C9          -2.7170     0.8330    -0.2280 ca         1 1WY      -0.114000
     27 N16         -4.7560     1.6620     0.7650 ns         1 1WY      -0.033100
     28 O18         -6.4590     0.2380     0.7460 o          1 1WY      -0.634100
     29 C20         -8.0700     1.4060     2.5000 c3         1 1WY       0.021900
     30 H1          -0.6720     0.0090     3.2200 h4         1 1WY      -0.010900
     31 H2          -4.7590    -0.7520    -3.0950 ha         1 1WY       0.121000
     32 H3          -3.5360    -0.9000    -4.7850 h1         1 1WY      -0.001967
     33 H4          -2.3200    -2.1700    -4.9850 h1         1 1WY      -0.001967
     34 H5          -3.6930    -2.4230    -3.8980 h1         1 1WY      -0.001967
     35 H6          -6.1480     2.1500     3.1100 hc         1 1WY       0.024200
     36 H7          -6.9040     3.0710     1.8030 hc         1 1WY       0.024200
     37 H8           3.9550     1.5930     2.5410 h4         1 1WY       0.147000
     38 H9           3.1180    -2.2160    -0.7870 ha         1 1WY       0.110000
     39 H10          7.3330    -2.7320    -1.2410 ha         1 1WY       0.101000
     40 H11          5.0280    -3.3960    -1.7970 ha         1 1WY       0.103000
     41 H12          7.7570    -0.8960     0.3350 ha         1 1WY       0.098000
     42 H13          6.3820     0.9910     2.0010 hn         1 1WY       0.114700
     43 H14         -0.1630    -0.0500    -2.0690 hn         1 1WY       0.301800
     44 H15         -5.9090     0.4880    -1.3040 ha         1 1WY       0.136000
     45 H16         -2.1460     1.2810     0.5760 ha         1 1WY       0.145000
     46 H17         -4.3330     2.4760     1.1640 hn         1 1WY       0.164500
     47 H18         -8.6740     1.3860     1.6010 hc         1 1WY       0.009033
     48 H19         -8.5880     1.9630     3.2710 hc         1 1WY       0.009033
     49 H20         -7.8970     0.3920     2.8410 hc         1 1WY       0.009033
     50 O14         -2.1740    -1.1300    -3.2550 os         1 1WY      -0.315900
@<TRIPOS>BOND
     1     1    21 ar  
     2     1    22 ar  
     3     1    23 1   
     4     2     3 ar  
     5     2    16 1   
     6     2    21 ar  
     7     3     4 ar  
     8     3    15 1   
     9     4    22 ar  
    10     4    30 1   
    11     5    23 1   
    12     5    24 ar  
    13     5    26 ar  
    14     6    25 ar  
    15     6    26 ar  
    16     6    27 1   
    17     7    24 ar  
    18     7    25 ar  
    19     7    31 1   
    20     8    32 1   
    21     8    33 1   
    22     8    34 1   
    23     8    50 1   
    24     9    10 1   
    25     9    27 1   
    26     9    28 2   
    27    10    29 1   
    28    10    35 1   
    29    10    36 1   
    30    11    16 2   
    31    11    20 1   
    32    11    37 1   
    33    12    13 ar  
    34    12    16 1   
    35    12    19 ar  
    36    13    17 ar  
    37    13    38 1   
    38    14    17 ar  
    39    14    18 ar  
    40    14    39 1   
    41    17    40 1   
    42    18    19 ar  
    43    18    41 1   
    44    19    20 1   
    45    20    42 1   
    46    23    43 1   
    47    24    50 1   
    48    25    44 1   
    49    26    45 1   
    50    27    46 1   
    51    29    47 1   
    52    29    48 1   
    53    29    49 1   
@<TRIPOS>SUBSTRUCTURE
     1 1WY         1 TEMP              0 ****  ****    0 ROOT
