@<TRIPOS>MOLECULE
molecule
   43    44     1     0     0
SMALL
bcc


@<TRIPOS>ATOM
      1 CAA          0.0000     0.0000     0.0000 c3         1 1WZ      -0.040300
      2 CAP          1.5070     0.0000     0.0000 ca         1 1WZ      -0.101800
      3 CAJ          2.1950     0.0000     1.1940 ca         1 1WZ      -0.123000
      4 CAT          2.2010    -0.0040    -1.2030 ca         1 1WZ       0.076100
      5 OAG          1.5180    -0.0090    -2.3780 oh         1 1WZ      -0.526100
      6 CAQ          3.5890    -0.0040    -1.2090 ca         1 1WZ      -0.101800
      7 CAB          4.3360    -0.0070    -2.5180 c3         1 1WZ      -0.040300
      8 CAK          4.2860     0.0020    -0.0210 ca         1 1WZ      -0.123000
      9 CAR          3.5920     0.0010     1.1930 ca         1 1WZ      -0.026800
     10 CAH          4.3330    -0.0000     2.4680 ce         1 1WZ      -0.157200
     11 CAI          5.6740     0.0010     2.4640 cf         1 1WZ      -0.067200
     12 CAS          6.4150     0.0010     3.7390 ca         1 1WZ      -0.076800
     13 CAM          7.8130     0.0070     3.7370 ca         1 1WZ      -0.206000
     14 CAL          5.7220     0.0000     4.9490 ca         1 1WZ      -0.115000
     15 CAU          6.4270     0.0010     6.1510 ca         1 1WZ      -0.072600
     16 CAO          5.6960    -0.0010     7.4360 c          1 1WZ       0.883200
     17 OAF          4.3490    -0.0020     7.4460 o          1 1WZ      -0.836300
     18 OAE          6.3110     0.0000     8.4850 o          1 1WZ      -0.836300
     19 CAN          7.8230     0.0020     6.1420 ca         1 1WZ      -0.158000
     20 CAV          8.5090     0.0070     4.9360 ca         1 1WZ       0.166600
     21 NAW          9.9070     0.0140     4.9300 nh         1 1WZ      -0.756000
     22 CAD         10.6450     0.0150     6.1950 c3         1 1WZ       0.239600
     23 CAC         10.6330     0.0210     3.6570 c3         1 1WZ       0.239600
     24 H1          -0.3610     0.1520     1.0100 hc         1 1WZ       0.040033
     25 H2          -0.3610    -0.9510    -0.3730 hc         1 1WZ       0.040033
     26 H3          -0.3610     0.7990    -0.6360 hc         1 1WZ       0.040033
     27 H4           1.6530    -0.0010     2.1320 ha         1 1WZ       0.140000
     28 H5           1.3600    -0.8990    -2.6460 ho         1 1WZ       0.407000
     29 H6           4.1950    -0.9610    -3.0120 hc         1 1WZ       0.040033
     30 H7           3.9590     0.7870    -3.1510 hc         1 1WZ       0.040033
     31 H8           5.3920     0.1510    -2.3320 hc         1 1WZ       0.040033
     32 H9           5.3690     0.0030    -0.0270 ha         1 1WZ       0.140000
     33 H10          3.7940    -0.0020     3.4070 ha         1 1WZ       0.159000
     34 H11          6.2130     0.0030     1.5240 ha         1 1WZ       0.112000
     35 H12          8.3520     0.0120     2.7980 ha         1 1WZ       0.108000
     36 H13          4.6420    -0.0790     4.9540 ha         1 1WZ       0.156000
     37 H15          8.3700     0.0020     7.0760 ha         1 1WZ       0.149000
     38 H16         10.3900    -0.8710     6.7630 h1         1 1WZ       0.025033
     39 H17         10.3820     0.8980     6.7660 h1         1 1WZ       0.025033
     40 H18         11.7090     0.0210     5.9920 h1         1 1WZ       0.025033
     41 H19         11.6990     0.0250     3.8500 h1         1 1WZ       0.025033
     42 H20         10.3730    -0.8630     3.0880 h1         1 1WZ       0.025033
     43 H21         10.3650     0.9060     3.0930 h1         1 1WZ       0.025033
@<TRIPOS>BOND
     1     5     4 1   
     2     7     6 1   
     3     4     6 ar  
     4     4     2 ar  
     5     1     2 1   
     6     6     8 ar  
     7     2     3 ar  
     8     8     9 ar  
     9     3     9 ar  
    10     9    10 1   
    11    10    11 2   
    12    11    12 1   
    13    12    14 ar  
    14    12    13 ar  
    15    14    15 ar  
    16    13    20 ar  
    17    18    16 1   
    18    15    16 1   
    19    15    19 ar  
    20    20    19 ar  
    21    20    21 1   
    22    22    21 1   
    23    16    17 1   
    24    21    23 1   
    25     1    24 1   
    26     1    25 1   
    27     1    26 1   
    28     3    27 1   
    29     5    28 1   
    30     7    29 1   
    31     7    30 1   
    32     7    31 1   
    33     8    32 1   
    34    10    33 1   
    35    11    34 1   
    36    13    35 1   
    37    14    36 1   
    38    19    37 1   
    39    22    38 1   
    40    22    39 1   
    41    22    40 1   
    42    23    41 1   
    43    23    42 1   
    44    23    43 1   
@<TRIPOS>SUBSTRUCTURE
     1 1WZ         1 TEMP              0 ****  ****    0 ROOT
