@<TRIPOS>MOLECULE
1WZ
   43    44     1     0     0
SMALL
bcc


@<TRIPOS>ATOM
      1 CAA          1.7740     1.1930     2.4870 c3         1 1WZ      -0.046800
      2 CAP          2.6360     0.2930     1.6870 ca         1 1WZ      -0.131800
      3 CAJ          3.9710     0.1020     2.0480 ca         1 1WZ      -0.095500
      4 CAT          2.1370    -0.3810     0.5560 ca         1 1WZ       0.109100
      5 OAG          0.8160    -0.1430     0.2310 oh         1 1WZ      -0.507100
      6 CAQ          2.9600    -1.2370    -0.2000 ca         1 1WZ      -0.131800
      7 CAB          2.4360    -1.9500    -1.3870 c3         1 1WZ      -0.046800
      8 CAK          4.2900    -1.4050     0.1900 ca         1 1WZ      -0.095500
      9 CAR          4.8100    -0.7460     1.3130 ca         1 1WZ      -0.052800
     10 CAH          6.2130    -0.9250     1.6440 ce         1 1WZ      -0.161200
     11 CAI          6.8170    -0.8890     2.8410 cf         1 1WZ      -0.047200
     12 CAS          6.2490    -0.7160     4.1680 ca         1 1WZ      -0.109800
     13 CAM          5.0280    -1.2990     4.5250 ca         1 1WZ      -0.138000
     14 CAL          6.9770     0.0110     5.1210 ca         1 1WZ      -0.098000
     15 CAU          6.4800     0.1740     6.4140 ca         1 1WZ      -0.121600
     16 CAO          7.2680     0.9760     7.4430 c          1 1WZ       0.909200
     17 OAF          6.7700     1.1050     8.5970 o          1 1WZ      -0.828800
     18 OAE          8.3750     1.4680     7.0860 o          1 1WZ      -0.828800
     19 CAN          5.2570    -0.3960     6.7650 ca         1 1WZ      -0.126000
     20 CAV          4.5160    -1.1450     5.8290 ca         1 1WZ       0.062600
     21 NAW          3.2840    -1.7990     6.1610 nh         1 1WZ      -0.629000
     22 CAD          2.1360    -1.2570     5.4660 c3         1 1WZ       0.166600
     23 CAC          3.0500    -1.9820     7.5740 c3         1 1WZ       0.166600
     24 H1           1.9620     1.0430     3.5800 hc         1 1WZ       0.041200
     25 H2           1.9970     2.2600     2.2350 hc         1 1WZ       0.041200
     26 H3           0.6920     1.0020     2.2800 hc         1 1WZ       0.041200
     27 H4           4.3720     0.6180     2.9380 ha         1 1WZ       0.145000
     28 H5           0.5620    -0.7650    -0.4650 ho         1 1WZ       0.410000
     29 H6           2.0300    -1.2250    -2.1360 hc         1 1WZ       0.041200
     30 H7           1.6140    -2.6520    -1.0940 hc         1 1WZ       0.041200
     31 H8           3.2400    -2.5480    -1.8830 hc         1 1WZ       0.041200
     32 H9           4.9420    -2.0720    -0.3950 ha         1 1WZ       0.145000
     33 H10          6.8480    -1.1080     0.7550 ha         1 1WZ       0.108000
     34 H11          7.9200    -1.0010     2.8570 ha         1 1WZ       0.119000
     35 H12          4.4760    -1.8850     3.7740 ha         1 1WZ       0.126000
     36 H13          7.9470     0.4710     4.8710 ha         1 1WZ       0.154000
     37 H15          4.9040    -0.2370     7.7980 ha         1 1WZ       0.158000
     38 H16          2.3810    -1.1310     4.3780 h1         1 1WZ       0.028200
     39 H17          1.2870    -1.9830     5.5680 h1         1 1WZ       0.028200
     40 H18          1.8010    -0.2620     5.8710 h1         1 1WZ       0.028200
     41 H19          3.9720    -2.4070     8.0490 h1         1 1WZ       0.028200
     42 H20          2.7750    -1.0320     8.1110 h1         1 1WZ       0.028200
     43 H21          2.2060    -2.7120     7.6950 h1         1 1WZ       0.028200
@<TRIPOS>BOND
     1     1     2 1   
     2     1    24 1   
     3     1    25 1   
     4     1    26 1   
     5     2     3 ar  
     6     2     4 ar  
     7     3     9 ar  
     8     3    27 1   
     9     4     5 1   
    10     4     6 ar  
    11     5    28 1   
    12     6     7 1   
    13     6     8 ar  
    14     7    29 1   
    15     7    30 1   
    16     7    31 1   
    17     8     9 ar  
    18     8    32 1   
    19     9    10 1   
    20    10    11 2   
    21    10    33 1   
    22    11    12 1   
    23    11    34 1   
    24    12    13 ar  
    25    12    14 ar  
    26    13    20 ar  
    27    13    35 1   
    28    14    15 ar  
    29    14    36 1   
    30    15    16 1   
    31    15    19 ar  
    32    16    17 1   
    33    16    18 1   
    34    19    20 ar  
    35    19    37 1   
    36    20    21 1   
    37    21    22 1   
    38    21    23 1   
    39    22    38 1   
    40    22    39 1   
    41    22    40 1   
    42    23    41 1   
    43    23    42 1   
    44    23    43 1   
@<TRIPOS>SUBSTRUCTURE
     1 1WZ         1 TEMP              0 ****  ****    0 ROOT
