@<TRIPOS>MOLECULE
1WZ
   43    46     1     0     0
SMALL
bcc


@<TRIPOS>ATOM
      1 CAA          0.0000     0.0000     0.0000 c3         1 1WZ      -0.053500
      2 CAP          1.5070     0.0000     0.0000 c2         1 1WZ      -0.100000
      3 CAJ          2.1950     0.0000     1.1940 c2         1 1WZ      -0.126000
      4 CAT          2.2010    -0.0040    -1.2030 c2         1 1WZ       0.030000
      5 OAG          1.5180    -0.0090    -2.3780 oh         1 1WZ      -0.254000
      6 CAQ          3.5890    -0.0040    -1.2090 c2         1 1WZ      -0.100000
      7 CAB          4.3360    -0.0070    -2.5180 c3         1 1WZ      -0.053500
      8 CAK          4.2860     0.0020    -0.0210 c2         1 1WZ      -0.126000
      9 CAR          3.5920     0.0010     1.1930 c3         1 1WZ      -0.044000
     10 CAH          4.3330    -0.0000     2.4680 c2         1 1WZ      -0.125000
     11 CAI          5.6740     0.0010     2.4640 c2         1 1WZ      -0.209000
     12 CAS          6.4150     0.0010     3.7390 c3         1 1WZ      -0.088000
     13 CAM          7.8130     0.0070     3.7370 c2         1 1WZ      -0.203000
     14 CAL          5.7220     0.0000     4.9490 c2         1 1WZ      -0.096000
     15 CAU          6.4270     0.0010     6.1510 c2         1 1WZ      -0.050000
     16 CAO          5.6960    -0.0010     7.4360 c2         1 1WZ       0.420000
     17 OAF          4.3490    -0.0020     7.4460 o          1 1WZ      -0.615000
     18 OAE          6.3110     0.0000     8.4850 o          1 1WZ      -0.615000
     19 CAN          7.8230     0.0020     6.1420 c2         1 1WZ      -0.133000
     20 CAV          8.5090     0.0070     4.9360 c2         1 1WZ      -0.037000
     21 NAW          9.9070     0.0140     4.9300 n3         1 1WZ      -0.021000
     22 CAD         10.6450     0.0150     6.1950 c3         1 1WZ      -0.058000
     23 CAC         10.6330     0.0210     3.6570 c3         1 1WZ      -0.058000
     24 H1          -0.3610    -0.1600     1.0090 hc         1 1WZ       0.043500
     25 H2          -0.3610     0.9530    -0.3660 hc         1 1WZ       0.043500
     26 H3          -0.3610    -0.7940    -0.6430 hc         1 1WZ       0.043500
     27 H4           1.6530    -0.0010     2.1320 ha         1 1WZ       0.128500
     28 H5           1.3590     0.8780    -2.6540 ho         1 1WZ       0.188000
     29 H6           5.3930    -0.1510    -2.3300 hc         1 1WZ       0.043500
     30 H7           3.9670    -0.8120    -3.1420 hc         1 1WZ       0.043500
     31 H8           4.1850     0.9400    -3.0230 hc         1 1WZ       0.043500
     32 H9           5.3690     0.0030    -0.0270 ha         1 1WZ       0.128500
     33 H10          4.1840     0.8750     1.8470 DU         1 1WZ       0.157000
     34 H11          5.8230    -0.8740     3.0850 DU         1 1WZ       0.230000
     35 H12          8.3520     0.0120     2.7980 ha         1 1WZ       0.110000
     36 H13          4.6410     0.0750     4.9540 ha         1 1WZ       0.155000
     37 H15          8.3700     0.0020     7.0760 ha         1 1WZ       0.134000
     38 H16         10.3900    -0.8710     6.7630 h1         1 1WZ       0.036667
     39 H17         11.7090     0.0210     5.9920 h1         1 1WZ       0.036667
     40 H18         10.3820     0.8980     6.7660 h1         1 1WZ       0.036667
     41 H19         11.6990     0.0270     3.8500 h1         1 1WZ       0.036667
     42 H20         10.3740    -0.8640     3.0890 h1         1 1WZ       0.036667
     43 H21         10.3630     0.9050     3.0920 h1         1 1WZ       0.036667
@<TRIPOS>BOND
     1     1     2 1   
     2     1    24 1   
     3     1    25 1   
     4     1    26 1   
     5     2     3 1   
     6     2     4 1   
     7     3     9 1   
     8     3    27 1   
     9     4     5 1   
    10     4     6 1   
    11     5    28 1   
    12     6     7 1   
    13     6     8 1   
    14     7    29 1   
    15     7    30 1   
    16     7    31 1   
    17     8     9 1   
    18     8    32 1   
    19     9    10 1   
    20     9    33 1   
    21    10    11 1   
    22    10    33 1   
    23    11    12 1   
    24    11    34 1   
    25    12    13 1   
    26    12    14 1   
    27    12    34 1   
    28    13    20 1   
    29    13    35 1   
    30    14    15 1   
    31    14    36 1   
    32    15    16 1   
    33    15    19 1   
    34    16    17 1   
    35    16    18 1   
    36    19    20 1   
    37    19    37 1   
    38    20    21 1   
    39    21    22 1   
    40    21    23 1   
    41    22    38 1   
    42    22    39 1   
    43    22    40 1   
    44    23    41 1   
    45    23    42 1   
    46    23    43 1   
@<TRIPOS>SUBSTRUCTURE
     1 1WZ         1 TEMP              0 ****  ****    0 ROOT
