@<TRIPOS>MOLECULE
molecule
   26    25     1     0     0
SMALL
bcc


@<TRIPOS>ATOM
      1 C17          0.0000     0.0000     0.0000 c          1 1X0       0.867600
      2 C18          1.5070     0.0000     0.0000 c3         1 1X0       0.042500
      3 O19         -0.6710     0.3970    -1.0930 o          1 1X0      -0.767800
      4 N20          1.9970     0.0000     1.3850 nz         1 1X0      -0.811600
      5 C24          2.0180    -1.2490    -0.7210 c3         1 1X0      -0.230400
      6 C25          3.5430    -1.1870    -0.8310 c3         1 1X0      -0.063400
      7 C26          4.0530    -2.4360    -1.5520 c3         1 1X0      -0.070400
      8 C27          5.5780    -2.3740    -1.6610 c3         1 1X0      -0.052200
      9 C28          6.0810    -3.6040    -2.3710 c2         1 1X0      -0.177200
     10 H14          1.8680     0.8850    -0.5100 hx         1 1X0       0.078700
     11 H15          2.3890    -0.8950     1.6000 hn         1 1X0       0.439133
     12 H16          2.1370    -0.2710    -1.1730 hc         1 1X0       0.124200
     13 H17          1.4270    -1.7770    -1.4600 hc         1 1X0       0.124200
     14 H18          3.8290    -0.3040    -1.3900 hc         1 1X0       0.021200
     15 H19          3.9740    -1.1410     0.1620 hc         1 1X0       0.021200
     16 H20          3.7670    -3.3180    -0.9930 hc         1 1X0       0.057200
     17 H21          3.6220    -2.4810    -2.5440 hc         1 1X0       0.057200
     18 H22          6.0090    -2.3290    -0.6680 hc         1 1X0       0.044700
     19 H23          5.8650    -1.4910    -2.2200 hc         1 1X0       0.044700
     20 H24          5.8200    -4.5890    -2.0020 ha         1 1X0       0.126000
     21 OXT         -0.6050    -0.3540     0.9840 o          1 1X0      -0.767800
     22 H1           2.6980     0.7060     1.4910 hn         1 1X0       0.439133
     23 C1           6.8340    -3.4840    -3.4360 c2         1 1X0      -0.214000
     24 H2           7.1960    -4.3680    -3.9470 ha         1 1X0       0.114000
     25 H3           7.0960    -2.4990    -3.8060 ha         1 1X0       0.114000
     26 H203         1.2330     0.1710     2.0090 hn         1 1X0       0.439133
@<TRIPOS>BOND
     1     9     8 1
     2     8     7 1
     3     7     6 1
     4     3     1 1
     5     6     5 1
     6     1     2 1
     7     5     2 1
     8     2     4 1
     9     2    10 1
    10     4    11 1
    11     5    12 1
    12     5    13 1
    13     6    14 1
    14     6    15 1
    15     7    16 1
    16     7    17 1
    17     8    18 1
    18     8    19 1
    19     9    20 1
    20     1    21 1
    21     4    22 1
    22     9    23 2
    23    23    24 1
    24    23    25 1
    25    26     4 1
@<TRIPOS>SUBSTRUCTURE
     1 1X0         1 TEMP              0 ****  ****    0 ROOT
