@<TRIPOS>MOLECULE
1X0
   26    25     1     0     0
SMALL
bcc


@<TRIPOS>ATOM
      1 C17          0.0000     0.0000     0.0000 c          1 1X0       0.949600
      2 C18          1.5070     0.0000     0.0000 c3         1 1X0      -0.106500
      3 O19         -0.6710     0.3970    -1.0930 o          1 1X0      -0.807300
      4 N20          1.9970     0.0000     1.3850 nz         1 1X0       0.013400
      5 C24          2.0180    -1.2490    -0.7210 c3         1 1X0      -0.202400
      6 C25          3.5430    -1.1870    -0.8310 c3         1 1X0       0.013600
      7 C26          4.0530    -2.4360    -1.5520 c3         1 1X0      -0.020400
      8 C27          5.5780    -2.3740    -1.6610 c3         1 1X0       0.013800
      9 C28          6.0810    -3.6040    -2.3710 c2         1 1X0      -0.160200
     10 H14          1.8680     0.8850    -0.5100 hx         1 1X0       0.063700
     11 H15          2.6990     0.7050     1.4910 hn         1 1X0       0.221133
     12 H16          2.1370    -0.2710    -1.1730 hc         1 1X0       0.098700
     13 H17          1.4270    -1.7770    -1.4600 hc         1 1X0       0.098700
     14 H18          3.9740    -1.1410     0.1620 hc         1 1X0      -0.006800
     15 H19          3.8290    -0.3040    -1.3900 hc         1 1X0      -0.006800
     16 H20          3.7670    -3.3180    -0.9930 hc         1 1X0       0.028200
     17 H21          3.6220    -2.4810    -2.5440 hc         1 1X0       0.028200
     18 H22          6.0090    -2.3280    -0.6680 hc         1 1X0       0.014700
     19 H23          5.8650    -1.4910    -2.2200 hc         1 1X0       0.014700
     20 H24          5.8200    -4.5890    -2.0010 ha         1 1X0       0.104000
     21 OXT         -0.6050    -0.3540     0.9840 o          1 1X0      -0.807300
     22 H1           2.3880    -0.8950     1.6010 hn         1 1X0       0.221133
     23 C1           6.8340    -3.4840    -3.4360 c2         1 1X0      -0.156000
     24 H2           7.0950    -2.4990    -3.8060 ha         1 1X0       0.085500
     25 H3           7.1960    -4.3680    -3.9470 ha         1 1X0       0.085500
     26 H203         1.2380     0.1980     2.0070 hn         1 1X0       0.221133
@<TRIPOS>BOND
     1     1     2 1   
     2     1     3 1   
     3     1    21 1   
     4     2     4 1   
     5     2     5 1   
     6     2    10 1   
     7     4    11 1   
     8     4    22 1   
     9     4    26 1   
    10     5     6 1   
    11     5    12 1   
    12     5    13 1   
    13     6     7 1   
    14     6    14 1   
    15     6    15 1   
    16     7     8 1   
    17     7    16 1   
    18     7    17 1   
    19     8     9 1   
    20     8    18 1   
    21     8    19 1   
    22     9    20 1   
    23     9    23 2   
    24    23    24 1   
    25    23    25 1   
@<TRIPOS>SUBSTRUCTURE
     1 1X0         1 TEMP              0 ****  ****    0 ROOT
