@<TRIPOS>MOLECULE
1X1
   23    24     1     0     0
SMALL
bcc


@<TRIPOS>ATOM
      1 C30          0.0000     0.0000     0.0000 c          1 1X1       0.991600
      2 N31          1.3480     0.0000     0.0000 n          1 1X1      -0.238800
      3 O32         -0.6070    -0.0050    -1.0510 o          1 1X1      -0.914800
      4 C33          2.1120     0.0000     1.2520 c3         1 1X1       0.118300
      5 C34          3.2430     0.9930     1.1580 ca         1 1X1      -0.067300
      6 C35          3.6090     1.5810    -0.0310 ca         1 1X1      -0.060300
      7 C36          2.8970     1.3100    -1.3300 c3         1 1X1       0.006900
      8 C37          2.1140    -0.0060    -1.2580 c3         1 1X1       0.061000
      9 C38          3.9260     1.3090     2.3250 ca         1 1X1      -0.107000
     10 C39          4.9740     2.2050     2.3020 ca         1 1X1      -0.125000
     11 C40          5.3500     2.7880     1.1060 ca         1 1X1      -0.130000
     12 C41          4.6710     2.4780    -0.0530 ca         1 1X1      -0.119000
     13 H28          1.4540     0.2970     2.0610 h1         1 1X1       0.032200
     14 H29          2.5280    -0.9880     1.4060 h1         1 1X1       0.032200
     15 H30          3.6270     1.2450    -2.1280 hc         1 1X1       0.014700
     16 H31          2.2100     2.1220    -1.5340 hc         1 1X1       0.014700
     17 H32          1.4250    -0.0560    -2.0920 h1         1 1X1       0.019700
     18 H33          2.8110    -0.8340    -1.2450 h1         1 1X1       0.019700
     19 H34          3.6310     0.8520     3.2620 ha         1 1X1       0.101000
     20 H35          5.5050     2.4450     3.2150 ha         1 1X1       0.088000
     21 H36          6.1730     3.4920     1.0810 ha         1 1X1       0.086000
     22 H37          4.9680     2.9360    -0.9890 ha         1 1X1       0.093000
     23 OXT         -0.6720    -0.0010     1.1670 o          1 1X1      -0.914800
@<TRIPOS>BOND
     1     1     2 1   
     2     1     3 1   
     3     1    23 1   
     4     2     4 1   
     5     2     8 1   
     6     4     5 1   
     7     4    13 1   
     8     4    14 1   
     9     5     6 ar  
    10     5     9 ar  
    11     6     7 1   
    12     6    12 ar  
    13     7     8 1   
    14     7    15 1   
    15     7    16 1   
    16     8    17 1   
    17     8    18 1   
    18     9    10 ar  
    19     9    19 1   
    20    10    11 ar  
    21    10    20 1   
    22    11    12 ar  
    23    11    21 1   
    24    12    22 1   
@<TRIPOS>SUBSTRUCTURE
     1 1X1         1 TEMP              0 ****  ****    0 ROOT
