@<TRIPOS>MOLECULE
molecule
   23    24     1     0     0
SMALL
bcc


@<TRIPOS>ATOM
      1 C30          0.0000     0.0000     0.0000 c          1 1X1       0.999600
      2 N31          1.3480     0.0000     0.0000 n          1 1X1      -0.530800
      3 O32         -0.6070    -0.0050    -1.0510 o          1 1X1      -0.865300
      4 C33          2.1120     0.0000     1.2520 c3         1 1X1       0.160300
      5 C34          3.2430     0.9930     1.1580 ca         1 1X1      -0.068300
      6 C35          3.6090     1.5810    -0.0310 ca         1 1X1      -0.055300
      7 C36          2.8970     1.3100    -1.3300 c3         1 1X1      -0.059100
      8 C37          2.1140    -0.0060    -1.2580 c3         1 1X1       0.116000
      9 C38          3.9260     1.3090     2.3250 ca         1 1X1      -0.135000
     10 C39          4.9740     2.2050     2.3020 ca         1 1X1      -0.147000
     11 C40          5.3500     2.7880     1.1060 ca         1 1X1      -0.152000
     12 C41          4.6710     2.4780    -0.0530 ca         1 1X1      -0.142000
     13 H28          1.4540     0.2970     2.0610 h1         1 1X1       0.058700
     14 H29          2.5280    -0.9880     1.4060 h1         1 1X1       0.058700
     15 H30          3.6270     1.2450    -2.1280 hc         1 1X1       0.042200
     16 H31          2.2100     2.1220    -1.5340 hc         1 1X1       0.042200
     17 H32          1.4250    -0.0560    -2.0920 h1         1 1X1       0.044200
     18 H33          2.8110    -0.8340    -1.2450 h1         1 1X1       0.044200
     19 H34          3.6310     0.8520     3.2620 ha         1 1X1       0.124000
     20 H35          5.5050     2.4450     3.2150 ha         1 1X1       0.110000
     21 H36          6.1730     3.4920     1.0810 ha         1 1X1       0.108000
     22 H37          4.9680     2.9360    -0.9890 ha         1 1X1       0.114000
     23 OXT         -0.6720    -0.0010     1.1670 o          1 1X1      -0.865300
@<TRIPOS>BOND
     1     3     1 1
     2     1     2 1
     3     2     4 1
     4     2     8 1
     5     4     5 1
     6     7     8 1
     7     7     6 1
     8     5     6 ar
     9     5     9 ar
    10     6    12 ar
    11     9    10 ar
    12    12    11 ar
    13    10    11 ar
    14     4    13 1
    15     4    14 1
    16     7    15 1
    17     7    16 1
    18     8    17 1
    19     8    18 1
    20     9    19 1
    21    10    20 1
    22    11    21 1
    23    12    22 1
    24     1    23 1
@<TRIPOS>SUBSTRUCTURE
     1 1X1         1 TEMP              0 ****  ****    0 ROOT
