@<TRIPOS>MOLECULE
1X2
   32    34     1     0     0
SMALL
bcc


@<TRIPOS>ATOM
      1 C10          0.0000     0.0000     0.0000 ca         1 1X2      -0.153000
      2 C11          1.3820     0.0000     0.0000 ca         1 1X2      -0.065000
      3 C12          2.0720     0.0000     1.1980 ca         1 1X2      -0.102000
      4 C13          1.3810     0.0010     2.3950 ca         1 1X2      -0.074000
      5 C14         -0.0010     0.0020     2.3940 ca         1 1X2      -0.102000
      6 C15         -0.6920     0.0080     1.1970 ca         1 1X2      -0.065000
      7 S01         -2.6620    -5.5720    -8.7980 s          1 1X2      -0.004000
      8 C02         -3.2810    -4.8740    -7.5550 c1         1 1X2      -0.047000
      9 N03         -3.7810    -4.3330    -6.5460 n2         1 1X2      -0.110000
     10 C04         -3.0490    -4.3320    -5.2770 c3         1 1X2      -0.200000
     11 C05         -2.7930    -2.8880    -4.8360 c3         1 1X2       0.185000
     12 C06         -2.0290    -2.8870    -3.5110 c3         1 1X2      -0.370000
     13 C07         -1.7740    -1.4450    -3.0710 DU         1 1X2      -0.096000
     14 C08         -1.0090    -1.4430    -1.7460 c3         1 1X2      -0.037000
     15 C09         -0.7540    -0.0010    -1.3050 DU         1 1X2      -0.168000
     16 H1           1.9170    -0.0060    -0.9420 ha         1 1X2       0.106000
     17 H2           3.1560     0.0010     1.1920 ha         1 1X2       0.108000
     18 H3           1.9260    -0.0000     3.3310 ha         1 1X2       0.106000
     19 H4          -0.5370     0.0020     3.3360 ha         1 1X2       0.108000
     20 H5          -1.7750     0.0060     1.2030 ha         1 1X2       0.106000
     21 H8          -3.5830    -4.9420    -4.5590 h1         1 1X2       0.048000
     22 H9          -2.9870    -3.3170    -4.9040 h1         1 1X2       0.048000
     23 H10         -2.3770    -2.3350    -5.6700 hc         1 1X2       0.010000
     24 H11         -3.7350    -2.4370    -4.5500 hc         1 1X2       0.010000
     25 H12         -0.9780    -3.0360    -3.7290 hc         1 1X2       0.086000
     26 H13         -2.1460    -1.9110    -3.0560 DU         1 1X2       0.258000
     27 H14         -1.2010    -0.9160    -3.8230 ha         1 1X2       0.070500
     28 H15         -2.7110    -0.9370    -2.8800 ha         1 1X2       0.070500
     29 H16         -0.1120    -0.8440    -1.8400 DU         1 1X2       0.139000
     30 H17         -1.6380    -1.0460    -0.9590 hc         1 1X2       0.284000
     31 H18         -0.0630     0.2690    -2.0950 ha         1 1X2      -0.075000
     32 H19         -1.1080    -1.0080    -1.4910 ha         1 1X2      -0.075000
@<TRIPOS>BOND
     1     1     2 1   
     2     1     6 1   
     3     1    15 1   
     4     2     3 1   
     5     2    16 1   
     6     3     4 1   
     7     3    17 1   
     8     4     5 1   
     9     4    18 1   
    10     5     6 1   
    11     5    19 1   
    12     6    20 1   
    13     7     8 1   
    14     8     9 1   
    15     9    10 1   
    16    10    11 1   
    17    10    21 1   
    18    10    22 1   
    19    11    12 1   
    20    11    23 1   
    21    11    24 1   
    22    12    13 1   
    23    12    25 1   
    24    12    26 1   
    25    13    14 1   
    26    13    26 1   
    27    13    27 1   
    28    13    28 1   
    29    14    15 1   
    30    14    29 1   
    31    14    30 1   
    32    15    29 1   
    33    15    31 1   
    34    15    32 1   
@<TRIPOS>SUBSTRUCTURE
     1 1X2         1 TEMP              0 ****  ****    0 ROOT
