@<TRIPOS>MOLECULE
molecule
   32    32     1     0     0
SMALL
bcc


@<TRIPOS>ATOM
      1 C10          0.0000     0.0000     0.0000 ca         1 1X2      -0.187300
      2 C11          1.3820     0.0000     0.0000 ca         1 1X2      -0.087500
      3 C12          2.0720     0.0000     1.1980 ca         1 1X2      -0.126500
      4 C13          1.3810     0.0010     2.3950 ca         1 1X2      -0.087000
      5 C14         -0.0010     0.0020     2.3940 ca         1 1X2      -0.126500
      6 C15         -0.6920     0.0080     1.1970 ca         1 1X2      -0.087500
      7 S01         -2.6350    -5.5420    -8.8010 s          1 1X2      -0.325900
      8 C02         -3.2810    -4.8740    -7.5550 c1         1 1X2       0.454300
      9 N03         -3.7810    -4.3330    -6.5460 n2         1 1X2      -0.482600
     10 C04         -3.0490    -4.3320    -5.2770 c3         1 1X2      -0.107200
     11 C05         -2.7930    -2.8880    -4.8360 c3         1 1X2      -0.243400
     12 C06         -2.0290    -2.8870    -3.5110 c3         1 1X2      -0.417400
     13 C07         -1.7740    -1.4450    -3.0710 c3         1 1X2      -0.379400
     14 C08         -1.0090    -1.4430    -1.7460 c3         1 1X2      -0.511400
     15 C09         -0.7540    -0.0010    -1.3050 c3         1 1X2       0.063900
     16 H1           1.9330    -0.0050    -0.9330 ha         1 1X2       0.139500
     17 H2           3.1560    -0.0000     1.1800 ha         1 1X2       0.145500
     18 H3           1.9180     0.0010     3.3360 ha         1 1X2       0.144000
     19 H4          -0.5360     0.0030     3.3360 ha         1 1X2       0.145500
     20 H5          -1.7750     0.0080     1.1940 ha         1 1X2       0.139500
     21 H8          -2.6590    -3.3320    -5.1280 h1         1 1X2       0.139200
     22 H9          -2.2050    -5.0020    -5.3880 h1         1 1X2       0.139200
     23 H10         -1.8690    -2.5520    -5.2890 hc         1 1X2       0.137200
     24 H11         -2.6730    -2.8760    -3.7600 hc         1 1X2       0.137200
     25 H12         -2.7740    -2.8740    -2.7250 hc         1 1X2       0.192700
     26 H13         -1.4960    -1.9450    -3.4620 hc         1 1X2       0.192700
     27 H14         -0.7210    -1.2340    -3.2170 hc         1 1X2       0.231200
     28 H15         -1.9860    -1.3780    -2.0110 hc         1 1X2       0.231200
     29 H16         -1.4180    -0.6580    -1.1230 hc         1 1X2       0.162700
     30 H17         -1.1860    -2.3930    -1.2550 hc         1 1X2       0.162700
     31 H18         -0.0870     0.3590    -2.0800 hc         1 1X2       0.106700
     32 H19         -1.0230    -1.0240    -1.5380 hc         1 1X2       0.106700
@<TRIPOS>BOND
     1     5     6 ar  
     2     5     4 ar  
     3     6     1 ar  
     4     4     3 ar  
     5     1    15 1   
     6     1     2 ar  
     7     3     2 ar  
     8    15    14 1   
     9    14    13 1   
    10    13    12 1   
    11    12    11 1   
    12    11    10 1   
    13    10     9 1   
    14     7     8 2   
    15     9     8 2   
    16     2    16 1   
    17     3    17 1   
    18     4    18 1   
    19     5    19 1   
    20     6    20 1   
    21    10    21 1   
    22    10    22 1   
    23    11    23 1   
    24    11    24 1   
    25    12    25 1   
    26    12    26 1   
    27    13    27 1   
    28    13    28 1   
    29    14    29 1   
    30    14    30 1   
    31    15    31 1   
    32    15    32 1   
@<TRIPOS>SUBSTRUCTURE
     1 1X2         1 TEMP              0 ****  ****    0 ROOT
