@<TRIPOS>MOLECULE
1X2
   32    32     1     0     0
SMALL
bcc


@<TRIPOS>ATOM
      1 C10         -0.0210    -0.0260    -0.0100 ca         1 1X2      -0.079300
      2 C11          1.3750     0.0240     0.0680 ca         1 1X2      -0.127500
      3 C12          2.0110     0.0350     1.3090 ca         1 1X2      -0.128000
      4 C13          1.2580    -0.0040     2.4820 ca         1 1X2      -0.132000
      5 C14         -0.1350    -0.0540     2.4110 ca         1 1X2      -0.128000
      6 C15         -0.7720    -0.0660     1.1720 ca         1 1X2      -0.127500
      7 S01          0.7410     6.8440    -5.1220 s          1 1X2      -0.227900
      8 C02         -0.5750     6.2720    -4.7950 c1         1 1X2       0.478300
      9 N03         -1.7430     5.9780    -4.5820 n2         1 1X2      -0.613600
     10 C04         -2.5240     4.8930    -4.1210 c3         1 1X2       0.216800
     11 C05         -1.7750     3.6020    -3.7800 c3         1 1X2      -0.113400
     12 C06         -2.7580     2.5500    -3.3120 c3         1 1X2      -0.076400
     13 C07         -2.0760     1.2400    -2.9770 c3         1 1X2      -0.079400
     14 C08         -1.3580     1.2880    -1.6450 c3         1 1X2      -0.077400
     15 C09         -0.7060    -0.0460    -1.3310 c3         1 1X2      -0.037100
     16 H1           1.9740     0.0530    -0.8550 ha         1 1X2       0.130500
     17 H2           3.1090     0.0740     1.3610 ha         1 1X2       0.131000
     18 H3           1.7600     0.0040     3.4600 ha         1 1X2       0.131000
     19 H4          -0.7310    -0.0860     3.3340 ha         1 1X2       0.131000
     20 H5          -1.8700    -0.1060     1.1170 ha         1 1X2       0.130500
     21 H8          -3.2900     4.6750    -4.9240 h1         1 1X2       0.064200
     22 H9          -3.0800     5.2510    -3.2040 h1         1 1X2       0.064200
     23 H10         -1.0180     3.7990    -2.9770 hc         1 1X2       0.054200
     24 H11         -1.2220     3.2290    -4.6810 hc         1 1X2       0.054200
     25 H12         -3.5160     2.3690    -4.1210 hc         1 1X2       0.043200
     26 H13         -3.3140     2.9260    -2.4130 hc         1 1X2       0.043200
     27 H14         -1.3470     0.9750    -3.7880 hc         1 1X2       0.043200
     28 H15         -2.8490     0.4270    -2.9480 hc         1 1X2       0.043200
     29 H16         -2.0840     1.5480    -0.8310 hc         1 1X2       0.045700
     30 H17         -0.5760     2.0910    -1.6620 hc         1 1X2       0.045700
     31 H18          0.0280    -0.3010    -2.1420 hc         1 1X2       0.047700
     32 H19         -1.4900    -0.8520    -1.3300 hc         1 1X2       0.047700
@<TRIPOS>BOND
     1     1     2 ar  
     2     1     6 ar  
     3     1    15 1   
     4     2     3 ar  
     5     2    16 1   
     6     3     4 ar  
     7     3    17 1   
     8     4     5 ar  
     9     4    18 1   
    10     5     6 ar  
    11     5    19 1   
    12     6    20 1   
    13     7     8 2   
    14     8     9 2   
    15     9    10 1   
    16    10    11 1   
    17    10    21 1   
    18    10    22 1   
    19    11    12 1   
    20    11    23 1   
    21    11    24 1   
    22    12    13 1   
    23    12    25 1   
    24    12    26 1   
    25    13    14 1   
    26    13    27 1   
    27    13    28 1   
    28    14    15 1   
    29    14    29 1   
    30    14    30 1   
    31    15    31 1   
    32    15    32 1   
@<TRIPOS>SUBSTRUCTURE
     1 1X2         1 TEMP              0 ****  ****    0 ROOT
