@<TRIPOS>MOLECULE
1X4
   21    21     1     0     0
SMALL
bcc


@<TRIPOS>ATOM
      1 O1P         1.7190   -1.1140   -1.0330 o         1 1X4     -0.924500
      2 P           2.8400   -0.1490   -0.7820 p5        1 1X4      1.318900
      3 O2P         3.6030   -0.2950    0.5060 o         1 1X4     -0.924500
      4 O3P         3.6960    0.2060   -1.9770 o         1 1X4     -0.924500
      5 O5'         1.9820    1.3440   -0.5230 os        1 1X4     -0.565200
      6 C5'         2.6910    2.3160    0.1300 c3        1 1X4      0.220400
      7 C4'         2.9070    3.5360   -0.7960 c3        1 1X4      0.103100
      8 O1'         3.5310    4.6080   -0.0330 os        1 1X4     -0.479600
      9 C3'         3.8250    3.2140   -1.9710 c3        1 1X4     -0.166400
     10 C2'         5.1600    3.8540   -1.6310 c3        1 1X4     -0.114400
     11 C1'         4.8580    4.8160   -0.4730 c3        1 1X4      0.327900
     12 O1          4.8840    6.1780   -0.8670 oh        1 1X4     -0.660800
     13 H3          3.6900    1.9350    0.4840 h1        1 1X4      0.001200
     14 H4          2.1080    2.6910    1.0240 h1        1 1X4      0.001200
     15 H5          1.9220    3.9520   -1.1300 h1        1 1X4      0.027700
     16 H6          3.4180    3.6340   -2.9210 hc        1 1X4      0.108700
     17 H7          3.8890    2.0700   -2.0780 hc        1 1X4      0.108700
     18 H8          5.8900    3.0770   -1.2970 hc        1 1X4      0.041200
     19 H9          5.5980    4.4070   -2.4950 hc        1 1X4      0.041200
     20 H10         5.5630    4.7400    0.3950 h2        1 1X4      0.061700
     21 H11         4.0860    6.3370   -1.3840 ho        1 1X4      0.399000
@<TRIPOS>BOND
     1    1    2 1   
     2    2    3 1   
     3    2    4 1   
     4    2    5 1   
     5    5    6 1   
     6    6    7 1   
     7    6   13 1   
     8    6   14 1   
     9    7    8 1   
    10    7    9 1   
    11    7   15 1   
    12    8   11 1   
    13    9   10 1   
    14    9   16 1   
    15    9   17 1   
    16   10   11 1   
    17   10   18 1   
    18   10   19 1   
    19   11   12 1   
    20   11   20 1   
    21   12   21 1   
@<TRIPOS>SUBSTRUCTURE
     1 1X4         1 TEMP              0 ****  ****    0 ROOT
