@<TRIPOS>MOLECULE
molecule
   21    21     1     0     0
SMALL
bcc


@<TRIPOS>ATOM
      1 O1P          0.0000     0.0000     0.0000 o          1 1X4      -0.911167
      2 P            1.6100     0.0000     0.0000 p5         1 1X4       1.181900
      3 O2P          2.1030     0.0000     1.3960 o          1 1X4      -0.911167
      4 O3P          2.1460    -1.3130    -0.7600 o          1 1X4      -0.911167
      5 O5'          2.1450     1.3160    -0.7580 os         1 1X4      -0.566200
      6 C5'          3.5300     1.6600    -0.8350 c3         1 1X4       0.215400
      7 C4'          3.6890     2.9620    -1.6220 c3         1 1X4       0.134100
      8 O1'          3.1040     4.0460    -0.8910 os         1 1X4      -0.394600
      9 C3'          5.1880     3.2810    -1.8100 c3         1 1X4      -0.121400
     10 C2'          5.2230     4.8230    -1.6230 c3         1 1X4      -0.119400
     11 C1'          4.1120     5.0150    -0.5590 c3         1 1X4       0.331900
     12 O1           3.5740     6.3370    -0.6360 oh         1 1X4      -0.619800
     13 H3           3.9260     1.7920     0.1650 h1         1 1X4       0.015200
     14 H4           4.0720     0.8670    -1.3360 h1         1 1X4       0.015200
     15 H5           3.2100     2.8730    -2.5900 h1         1 1X4       0.059700
     16 H6           5.5160     3.0080    -2.8050 hc         1 1X4       0.045200
     17 H7           5.7830     2.7890    -1.0500 hc         1 1X4       0.045200
     18 H8           4.9690     5.3310    -2.5450 hc         1 1X4       0.040200
     19 H9           6.1840     5.1450    -1.2410 hc         1 1X4       0.040200
     20 H10          4.5050     4.8210     0.4310 h2         1 1X4       0.031700
     21 H11          3.2680     6.6020     0.2150 ho         1 1X4       0.398000
@<TRIPOS>BOND
     1    10     9 1
     2    10    11 1
     3     9     7 1
     4    11    12 1
     5    11     8 1
     6     7     8 1
     7     7     6 1
     8     3     2 1
     9     5     6 1
    10     5     2 1
    11     2     1 1
    12     2     4 1
    13     6    13 1
    14     6    14 1
    15     7    15 1
    16     9    16 1
    17     9    17 1
    18    10    18 1
    19    10    19 1
    20    11    20 1
    21    12    21 1
@<TRIPOS>SUBSTRUCTURE
     1 1X4         1 TEMP              0 ****  ****    0 ROOT
