@<TRIPOS>MOLECULE
molecule
   42    44     1     0     0
SMALL
bcc


@<TRIPOS>ATOM
      1 CAA          0.0000     0.0000     0.0000 ca         1 1X5       0.032600
      2 CAB          1.4030     0.0000     0.0000 ca         1 1X5      -0.099600
      3 CAC         -0.6910     0.0010     1.2040 ca         1 1X5      -0.127000
      4 NAD         -0.6980     0.0060    -1.2070 ns         1 1X5      -0.430100
      5 CAE          2.0940     0.0000     1.2150 ca         1 1X5      -0.142000
      6 CAF          2.1450    -0.0010    -1.2730 c          1 1X5       0.892200
      7 CAG         -0.0000     0.0010     2.3990 ca         1 1X5      -0.211000
      8 CAH          1.3910     0.0000     2.4070 ca         1 1X5       0.147600
      9 OAI          3.4880    -0.1090    -1.2720 o          1 1X5      -0.839300
     10 OAJ          1.5440     0.0950    -2.3250 o          1 1X5      -0.839300
     11 CAK          1.0840    -1.4200     5.3210 ca         1 1X5      -0.222600
     12 CAL          1.9960    -2.0830     6.1280 ca         1 1X5      -0.089000
     13 CAM         -0.0660    -2.0780     4.9220 ca         1 1X5       0.436200
     14 CAN          1.3390     0.0000     4.8870 c3         1 1X5       0.291100
     15 CAO          1.7170    -3.3870     6.5070 ca         1 1X5      -0.264300
     16 NAP         -0.2980    -3.3190     5.3020 nb         1 1X5      -0.694000
     17 NAQ          2.0810    -0.0010     3.6240 nh         1 1X5      -0.746000
     18 CAR          0.5460    -3.9790     6.0690 ca         1 1X5       0.409200
     19 CAS          3.5460    -0.0020     3.6350 c3         1 1X5       0.238100
     20 CAT         -2.7500     0.4030    -2.5310 cx         1 1X5      -0.209700
     21 CAU         -1.9480     0.5090    -1.2600 c          1 1X5       0.680100
     22 CAV         -3.0400     1.6960    -3.2950 cx         1 1X5      -0.123400
     23 CAW         -4.1610     0.9930    -2.5280 cx         1 1X5      -0.123400
     24 OAX         -2.4270     1.0490    -0.2850 o          1 1X5      -0.645100
     25 HAC         -1.7740     0.0010     1.2060 ha         1 1X5       0.154000
     26 HNAD        -0.2910    -0.4080    -2.0220 hn         1 1X5       0.370500
     27 HAE          3.1780    -0.0000     1.2240 ha         1 1X5       0.158000
     28 HAG         -0.5450     0.0010     3.3360 ha         1 1X5       0.106000
     29 HAL          2.9050    -1.5930     6.4560 ha         1 1X5       0.131000
     30 HAM         -0.7830    -1.5670     4.2920 h4         1 1X5       0.039100
     31 HAN          1.9200     0.5110     5.6460 h1         1 1X5       0.049200
     32 HANA         0.3940     0.5120     4.7500 h1         1 1X5       0.049200
     33 HAO          2.4070    -3.9350     7.1370 ha         1 1X5       0.127000
     34 HAR          0.3200    -4.9980     6.3600 h4         1 1X5       0.011100
     35 HAS          3.9100    -0.9330     3.2180 h1         1 1X5       0.030367
     36 HASA         3.9000     0.1010     4.6530 h1         1 1X5       0.030367
     37 HASB         3.9120     0.8270     3.0400 h1         1 1X5       0.030367
     38 HAT         -2.6280    -0.4740    -3.1550 hc         1 1X5       0.083700
     39 HAV         -3.0820     1.6030    -4.3730 hc         1 1X5       0.076700
     40 HAVA        -2.6600     2.6030    -2.8400 hc         1 1X5       0.076700
     41 HAW         -4.8880     0.4710    -3.1370 hc         1 1X5       0.076700
     42 HAWA        -4.4660     1.4700    -1.6040 hc         1 1X5       0.076700
@<TRIPOS>BOND
     1     2     1 ar
     2     4     1 1
     3     1     3 ar
     4     6     2 1
     5     5     2 ar
     6     7     3 ar
     7     3    25 1
     8     4    21 1
     9     4    26 1
    10     5     8 ar
    11     5    27 1
    12    10     6 1
    13     6     9 1
    14     8     7 ar
    15     7    28 1
    16    17     8 1
    17    14    11 1
    18    13    11 ar
    19    11    12 ar
    20    12    15 ar
    21    12    29 1
    22    13    16 ar
    23    13    30 1
    24    17    14 1
    25    14    31 1
    26    14    32 1
    27    18    15 ar
    28    15    33 1
    29    16    18 ar
    30    19    17 1
    31    18    34 1
    32    19    35 1
    33    19    36 1
    34    19    37 1
    35    20    21 1
    36    20    23 1
    37    20    22 1
    38    20    38 1
    39    21    24 2
    40    23    22 1
    41    22    39 1
    42    22    40 1
    43    23    41 1
    44    23    42 1
@<TRIPOS>SUBSTRUCTURE
     1 1X5         1 TEMP              0 ****  ****    0 ROOT
