@<TRIPOS>MOLECULE
1X5
   42    44     1     0     0
SMALL
bcc


@<TRIPOS>ATOM
      1 CAA          0.2590     0.2930    -0.0470 ca         1 1X5       0.077600
      2 CAB          1.6700     0.1010    -0.0580 ca         1 1X5      -0.156600
      3 CAC         -0.3990     0.3770     1.1970 ca         1 1X5      -0.175000
      4 NAD         -0.4350     0.3730    -1.2650 ns         1 1X5      -0.448100
      5 CAE          2.3550     0.0170     1.1510 ca         1 1X5      -0.091000
      6 CAF          2.5180    -0.0210    -1.3210 c          1 1X5       0.913200
      7 CAG          0.3030     0.2700     2.3910 ca         1 1X5      -0.163000
      8 CAH          1.6960     0.0980     2.3960 ca         1 1X5       0.053600
      9 OAI          1.9650    -0.2630    -2.4380 o          1 1X5      -0.829300
     10 OAJ          3.7670     0.1100    -1.1980 o          1 1X5      -0.829300
     11 CAK          1.0290     0.0290     5.6850 ca         1 1X5      -0.214600
     12 CAL         -0.2950     0.4550     5.8420 ca         1 1X5      -0.086000
     13 CAM          1.4690    -1.0470     6.4870 ca         1 1X5       0.395200
     14 CAN          1.9710     0.7350     4.7510 c3         1 1X5       0.242100
     15 CAO         -1.1190    -0.1990     6.7590 ca         1 1X5      -0.249300
     16 NAP          0.6890    -1.6890     7.3770 nb         1 1X5      -0.675000
     17 NAQ          2.4800     0.0480     3.5900 nh         1 1X5      -0.637000
     18 CAR         -0.5850    -1.2670     7.5000 ca         1 1X5       0.381200
     19 CAS          3.1190    -1.2200     3.8340 c3         1 1X5       0.177100
     20 CAT         -2.1810     0.8110    -2.9110 cx         1 1X5      -0.205700
     21 CAU         -1.7300     0.7780    -1.4730 c          1 1X5       0.684100
     22 CAV         -3.2010     1.8530    -3.2970 cx         1 1X5      -0.115900
     23 CAW         -3.6070     0.4140    -3.2030 cx         1 1X5      -0.115900
     24 OAX         -2.5310     1.1000    -0.5630 o          1 1X5      -0.656100
     25 HAC         -1.4900     0.5260     1.2400 ha         1 1X5       0.154000
     26 HNAD         0.1350     0.1650    -2.0790 hn         1 1X5       0.380500
     27 HAE          3.4530    -0.1030     1.0990 ha         1 1X5       0.166000
     28 HAG         -0.2580     0.3230     3.3360 ha         1 1X5       0.111000
     29 HAL         -0.6840     1.2970     5.2480 ha         1 1X5       0.145000
     30 HAM          2.5100    -1.4110     6.4110 h4         1 1X5       0.023100
     31 HAN          1.4780     1.6860     4.3940 h1         1 1X5       0.055200
     32 HANA         2.8770     1.0240     5.3650 h1         1 1X5       0.055200
     33 HAO         -2.1640     0.1070     6.8980 ha         1 1X5       0.137000
     34 HAR         -1.2030    -1.8140     8.2320 h4         1 1X5       0.011100
     35 HAS          2.4090    -2.0140     4.1970 h1         1 1X5       0.030367
     36 HASA         3.5930    -1.5760     2.8810 h1         1 1X5       0.030367
     37 HASB         3.9190    -1.0770     4.6080 h1         1 1X5       0.030367
     38 HAT         -1.4030     0.5430    -3.6540 hc         1 1X5       0.101700
     39 HAV         -3.1140     2.3320    -4.2870 hc         1 1X5       0.073200
     40 HAVA        -3.5510     2.5520    -2.5150 hc         1 1X5       0.073200
     41 HAW         -3.8160    -0.1550    -4.1260 hc         1 1X5       0.073200
     42 HAWA        -4.2440     0.1000    -2.3570 hc         1 1X5       0.073200
@<TRIPOS>BOND
     1     1     2 ar  
     2     1     3 ar  
     3     1     4 1   
     4     2     5 ar  
     5     2     6 1   
     6     3     7 ar  
     7     3    25 1   
     8     4    21 1   
     9     4    26 1   
    10     5     8 ar  
    11     5    27 1   
    12     6     9 1   
    13     6    10 1   
    14     7     8 ar  
    15     7    28 1   
    16     8    17 1   
    17    11    12 ar  
    18    11    13 ar  
    19    11    14 1   
    20    12    15 ar  
    21    12    29 1   
    22    13    16 ar  
    23    13    30 1   
    24    14    17 1   
    25    14    31 1   
    26    14    32 1   
    27    15    18 ar  
    28    15    33 1   
    29    16    18 ar  
    30    17    19 1   
    31    18    34 1   
    32    19    35 1   
    33    19    36 1   
    34    19    37 1   
    35    20    21 1   
    36    20    22 1   
    37    20    23 1   
    38    20    38 1   
    39    21    24 2   
    40    22    23 1   
    41    22    39 1   
    42    22    40 1   
    43    23    41 1   
    44    23    42 1   
@<TRIPOS>SUBSTRUCTURE
     1 1X5         1 TEMP              0 ****  ****    0 ROOT
