@<TRIPOS>MOLECULE
molecule
   21    22     1     0     0
SMALL
bcc


@<TRIPOS>ATOM
      1 C1           0.0000     0.0000     0.0000 cc         1 1X7      -0.070200
      2 C2           1.4520     0.0000     0.0000 ca         1 1X7      -0.219100
      3 C3           1.9710     0.0000     1.2960 ca         1 1X7       0.039900
      4 N6           3.6700    -0.0020    -0.8750 nb         1 1X7      -0.710000
      5 C7           2.3660    -0.0010    -1.0830 ca         1 1X7       0.824200
      6 C13         -0.5550     0.0000     1.1980 cd         1 1X7      -0.017700
      7 C4           3.3790     0.0000     1.4640 ca         1 1X7      -0.335900
      8 C5           4.1930    -0.0010     0.3360 ca         1 1X7       0.498200
      9 N8           1.8850    -0.0010    -2.3800 nv         1 1X7      -1.083500
     10 O10          3.2490    -0.0000     3.7920 o          1 1X7      -0.430100
     11 N11          5.3090    -0.0010     2.9600 nz         1 1X7      -0.676400
     12 S12          0.6590     0.0000     2.4630 ss         1 1X7       0.084500
     13 Br1         -2.4200     0.0090     1.5090 br         1 1X7       0.039300
     14 H1          -0.5830    -0.0000    -0.9130 ha         1 1X7       0.187000
     15 H2           5.2700    -0.0010     0.4530 h4         1 1X7       0.001100
     16 H3           1.7290    -0.8680    -2.8560 hn         1 1X7       0.465800
     17 H4           1.7290     0.8660    -2.8560 hn         1 1X7       0.465800
     18 H5           5.5370    -0.0010     3.9350 hn         1 1X7       0.477467
     19 H6           5.7300     0.7930     2.5200 hn         1 1X7       0.477467
     20 C9           3.9700     0.0000     2.8120 c          1 1X7       0.505700
     21 H113         5.6550    -0.8390     2.5370 hn         1 1X7       0.477467
@<TRIPOS>BOND
     1    11    20 1   
     2     8     4 ar  
     3     8     7 ar  
     4     4     5 ar  
     5    20     7 1   
     6    20    10 2   
     7     7     3 ar  
     8     5     9 1   
     9     5     2 ar  
    10     3     2 ar  
    11     3    12 1   
    12     2     1 1   
    13     1     6 2   
    14    12     6 1   
    15     6    13 1   
    16     1    14 1   
    17     8    15 1   
    18     9    16 1   
    19     9    17 1   
    20    11    18 1   
    21    11    19 1   
    22    21    11 1   
@<TRIPOS>SUBSTRUCTURE
     1 1X7         1 TEMP              0 ****  ****    0 ROOT
