@<TRIPOS>MOLECULE
1X7
   21    22     1     0     0
SMALL
bcc


@<TRIPOS>ATOM
      1 C1          -0.0030     0.0250    -0.0580 cc         1 1X7      -0.053200
      2 C2           1.4270    -0.0100    -0.0270 ca         1 1X7      -0.296100
      3 C3           1.9240    -0.0340     1.3070 ca         1 1X7      -0.012100
      4 N6           3.7190    -0.0580    -0.8990 nb         1 1X7      -0.743000
      5 C7           2.3430    -0.0230    -1.1380 ca         1 1X7       0.803200
      6 C13         -0.5310     0.0260     1.2140 cd         1 1X7      -0.142700
      7 C4           3.3340    -0.0700     1.5190 ca         1 1X7      -0.393900
      8 C5           4.1460    -0.0800     0.3510 ca         1 1X7       0.544200
      9 N8           1.8990    -0.0010    -2.4160 nv         1 1X7      -0.897500
     10 O10          3.2570    -0.0890     3.9350 o          1 1X7      -0.472100
     11 N11          5.3590    -0.1330     3.0250 nz         1 1X7      -0.760400
     12 S12          0.6700    -0.0130     2.3920 ss         1 1X7       0.282500
     13 Br1         -2.3050     0.0660     1.6570 br         1 1X7       0.054300
     14 C9           3.8390    -0.0940     2.8520 c          1 1X7       0.581700
     15 H1          -0.5940     0.0470    -0.9780 ha         1 1X7       0.175000
     16 H2           5.2530    -0.1070     0.4190 h4         1 1X7       0.008100
     17 H3           2.5320    -0.0090    -3.1850 hn         1 1X7       0.469800
     18 H4           0.9230     0.0250    -2.5970 hn         1 1X7       0.469800
     19 H5           5.7410    -0.9720     2.5840 hn         1 1X7       0.460800
     20 H6           5.7820     0.6940     2.5990 hn         1 1X7       0.460800
     21 H113         5.5810    -0.1470     4.0280 hn         1 1X7       0.460800
@<TRIPOS>BOND
     1     1     2 1   
     2     1     6 2   
     3     1    15 1   
     4     2     3 ar  
     5     2     5 ar  
     6     3     7 ar  
     7     3    12 1   
     8     4     5 ar  
     9     4     8 ar  
    10     5     9 1   
    11     6    12 1   
    12     6    13 1   
    13     7     8 ar  
    14     7    14 1   
    15     8    16 1   
    16     9    17 1   
    17     9    18 1   
    18    10    14 2   
    19    11    14 1   
    20    11    19 1   
    21    11    20 1   
    22    11    21 1   
@<TRIPOS>SUBSTRUCTURE
     1 1X7         1 TEMP              0 ****  ****    0 ROOT
