@<TRIPOS>MOLECULE
1X7
   21    22     1     0     0
SMALL
bcc


@<TRIPOS>ATOM
      1 C1           0.0000     0.0000     0.0000 cc         1 1X7      -0.053200
      2 C2           1.4520     0.0000     0.0000 ca         1 1X7      -0.210100
      3 C3           1.9710     0.0000     1.2960 ca         1 1X7       0.106900
      4 N6           3.6700    -0.0020    -0.8750 nb         1 1X7      -0.589000
      5 C7           2.3660    -0.0010    -1.0830 ca         1 1X7       0.650200
      6 C13         -0.5550     0.0000     1.1980 cd         1 1X7       0.076300
      7 C4           3.3790     0.0000     1.4640 ca         1 1X7      -0.337900
      8 C5           4.1930    -0.0010     0.3360 ca         1 1X7       0.477200
      9 N8           1.8850    -0.0010    -2.3800 nv         1 1X7      -0.665500
     10 O10          3.2490    -0.0000     3.7920 o          1 1X7      -0.425100
     11 N11          5.3090    -0.0010     2.9600 nz         1 1X7       0.203600
     12 S12          0.6590     0.0000     2.4630 ss         1 1X7      -0.088500
     13 Br1         -2.4200     0.0090     1.5090 br         1 1X7       0.050300
     14 H1          -0.5830    -0.0000    -0.9130 ha         1 1X7       0.151000
     15 H2           5.2700    -0.0010     0.4530 h4         1 1X7      -0.047900
     16 H3           1.7290    -0.8680    -2.8560 hn         1 1X7       0.305800
     17 H4           1.7290     0.8660    -2.8560 hn         1 1X7       0.305800
     18 H5           5.5370    -0.0010     3.9350 hn         1 1X7       0.246133
     19 H6           5.7300     0.7930     2.5200 hn         1 1X7       0.246133
     20 C9           3.9700     0.0000     2.8120 c          1 1X7       0.351700
     21 H113         5.6550    -0.8390     2.5370 hn         1 1X7       0.246133
@<TRIPOS>BOND
     1     1     2 1   
     2     1     6 2   
     3     1    14 1   
     4     2     3 ar  
     5     2     5 ar  
     6     3     7 ar  
     7     3    12 1   
     8     4     5 ar  
     9     4     8 ar  
    10     5     9 1   
    11     6    12 1   
    12     6    13 1   
    13     7     8 ar  
    14     7    20 1   
    15     8    15 1   
    16     9    16 1   
    17     9    17 1   
    18    10    20 2   
    19    11    18 1   
    20    11    19 1   
    21    11    20 1   
    22    11    21 1   
@<TRIPOS>SUBSTRUCTURE
     1 1X7         1 TEMP              0 ****  ****    0 ROOT
