@<TRIPOS>MOLECULE
1X8
   26    27     1     0     0
SMALL
bcc


@<TRIPOS>ATOM
      1 C1          -0.0280    -0.0160    -0.0290 cc         1 1X8      -0.002200
      2 C2           1.3850    -0.0700    -0.0040 ca         1 1X8      -0.301100
      3 C3           1.8880    -0.1250     1.3370 ca         1 1X8       0.004900
      4 C4           3.2910    -0.1850     1.5530 ca         1 1X8      -0.403900
      5 C5           4.1130    -0.1850     0.3910 ca         1 1X8       0.573200
      6 N6           3.6890    -0.1350    -0.8600 nb         1 1X8      -0.725000
      7 C7           2.3200    -0.0760    -1.1160 ca         1 1X8       0.814200
      8 N8           1.9020    -0.0260    -2.3950 nv         1 1X8      -0.870500
      9 C9           3.7860    -0.2390     2.9000 c          1 1X8       0.578700
     10 O10          3.1440    -0.2430     3.9490 o          1 1X8      -0.458100
     11 N11          5.2850    -0.3020     3.1160 nz         1 1X8      -0.749400
     12 S12          0.6560    -0.1080     2.4320 ss         1 1X8       0.414500
     13 C13         -0.5610    -0.0300     1.2590 cd         1 1X8      -0.330600
     14 C14         -1.9430     0.0120     1.6550 c          1 1X8       0.603300
     15 O15         -2.4290     0.0010     2.7770 o          1 1X8      -0.391100
     16 N16         -2.9770     0.0800     0.5450 nz         1 1X8      -0.754400
     17 H1          -0.6100     0.0310    -0.9560 ha         1 1X8       0.155000
     18 H2           5.2210    -0.2290     0.4640 h4         1 1X8       0.034100
     19 H3           2.5550    -0.0300    -3.1550 hn         1 1X8       0.478800
     20 H4           0.9330     0.0170    -2.6080 hn         1 1X8       0.478800
     21 H5           5.7370     0.5270     2.7200 hn         1 1X8       0.475133
     22 H6           5.6740    -1.1410     2.6750 hn         1 1X8       0.475133
     23 H7          -2.9030    -0.7430    -0.0590 hn         1 1X8       0.475467
     24 H8          -2.8390     0.9260    -0.0160 hn         1 1X8       0.475467
     25 H113         5.4760    -0.3370     4.1290 hn         1 1X8       0.475133
     26 H163        -3.9210     0.1050     0.9620 hn         1 1X8       0.475467
@<TRIPOS>BOND
     1     1     2 1   
     2     1    13 2   
     3     1    17 1   
     4     2     3 ar  
     5     2     7 ar  
     6     3     4 ar  
     7     3    12 1   
     8     4     5 ar  
     9     4     9 1   
    10     5     6 ar  
    11     5    18 1   
    12     6     7 ar  
    13     7     8 1   
    14     8    19 1   
    15     8    20 1   
    16     9    10 2   
    17     9    11 1   
    18    11    21 1   
    19    11    22 1   
    20    11    25 1   
    21    12    13 1   
    22    13    14 1   
    23    14    15 2   
    24    14    16 1   
    25    16    23 1   
    26    16    24 1   
    27    16    26 1   
@<TRIPOS>SUBSTRUCTURE
     1 1X8         1 TEMP              0 ****  ****    0 ROOT
