@<TRIPOS>MOLECULE
molecule
   26    27     1     0     0
SMALL
bcc


@<TRIPOS>ATOM
      1 C1           0.0000     0.0000     0.0000 cc         1 1X8       0.073800
      2 C2           1.4010     0.0000     0.0000 ca         1 1X8      -0.266100
      3 C3           1.9380     0.0000     1.2920 ca         1 1X8       0.110900
      4 C4           3.3470    -0.0000     1.4460 ca         1 1X8      -0.354900
      5 C5           4.1480     0.0010     0.3080 ca         1 1X8       0.547200
      6 N6           3.6140     0.0020    -0.8970 nb         1 1X8      -0.692000
      7 C7           2.3080     0.0020    -1.0950 ca         1 1X8       0.867200
      8 N8           1.8170     0.0020    -2.3840 nv         1 1X8      -1.082500
      9 C9           3.9520    -0.0000     2.7870 c          1 1X8       0.522700
     10 O10          3.2430    -0.0010     3.7740 o          1 1X8      -0.431100
     11 N11          5.2930    -0.0000     2.9200 nz         1 1X8      -0.678400
     12 S12          0.6380    -0.0010     2.4740 ss         1 1X8       0.021500
     13 C13         -0.5780    -0.0000     1.2070 cd         1 1X8      -0.233600
     14 C14         -2.0270     0.0050     1.4400 c          1 1X8       0.539300
     15 O15         -2.7950     0.0110     0.4960 o          1 1X8      -0.383100
     16 N16         -2.5080     0.0040     2.6990 nz         1 1X8      -0.677400
     17 H1          -0.5770     0.0000    -0.9170 ha         1 1X8       0.206000
     18 H2           5.2260     0.0010     0.4140 h4         1 1X8       0.025100
     19 H3           1.6580     0.8680    -2.8580 hn         1 1X8       0.480800
     20 H4           1.6590    -0.8650    -2.8590 hn         1 1X8       0.480800
     21 H5           5.6720    -0.8170     2.4840 hn         1 1X8       0.487800
     22 H6           5.5320    -0.0000     3.8920 hn         1 1X8       0.487800
     23 H7          -2.1870    -0.8140     3.1780 hn         1 1X8       0.486800
     24 H8          -3.5080     0.0040     2.6740 hn         1 1X8       0.486800
     25 H113         5.6720     0.8170     2.4840 hn         1 1X8       0.487800
     26 H163        -2.1970     0.8260     3.1760 hn         1 1X8       0.486800
@<TRIPOS>BOND
     1    11     9 1
     2     5     6 ar
     3     5     4 ar
     4     6     7 ar
     5     9     4 1
     6     9    10 2
     7     4     3 ar
     8     7     8 1
     9     7     2 ar
    10     3     2 ar
    11     3    12 1
    12     2     1 1
    13     1    13 2
    14    12    13 1
    15    13    14 1
    16    14    16 1
    17    14    15 2
    18     1    17 1
    19     5    18 1
    20     8    19 1
    21     8    20 1
    22    11    21 1
    23    11    22 1
    24    16    23 1
    25    16    24 1
    26    25    11 1
    27    26    16 1
@<TRIPOS>SUBSTRUCTURE
     1 1X8         1 TEMP              0 ****  ****    0 ROOT
