@<TRIPOS>MOLECULE
1X8
   26    27     1     0     0
SMALL
bcc


@<TRIPOS>ATOM
      1 C1           0.0000     0.0000     0.0000 cc         1 1X8       0.135800
      2 C2           1.4010     0.0000     0.0000 ca         1 1X8      -0.279100
      3 C3           1.9380     0.0000     1.2920 ca         1 1X8       0.177900
      4 C4           3.3470    -0.0000     1.4460 ca         1 1X8      -0.361900
      5 C5           4.1480     0.0010     0.3080 ca         1 1X8       0.536200
      6 N6           3.6140     0.0020    -0.8970 nb         1 1X8      -0.572000
      7 C7           2.3080     0.0020    -1.0950 ca         1 1X8       0.700200
      8 N8           1.8170     0.0020    -2.3840 nv         1 1X8      -0.665500
      9 C9           3.9520    -0.0000     2.7870 c          1 1X8       0.372700
     10 O10          3.2430    -0.0010     3.7740 o          1 1X8      -0.431100
     11 N11          5.2930    -0.0000     2.9200 nz         1 1X8       0.206600
     12 S12          0.6380    -0.0010     2.4740 ss         1 1X8      -0.108500
     13 C13         -0.5780    -0.0000     1.2070 cd         1 1X8      -0.215600
     14 C14         -2.0270     0.0050     1.4400 c          1 1X8       0.392300
     15 O15         -2.7950     0.0110     0.4960 o          1 1X8      -0.396100
     16 N16         -2.5080     0.0040     2.6990 nz         1 1X8       0.209600
     17 H1          -0.5770     0.0000    -0.9170 ha         1 1X8       0.158000
     18 H2           5.2260     0.0010     0.4140 h4         1 1X8      -0.030900
     19 H3           1.6580     0.8680    -2.8580 hn         1 1X8       0.321300
     20 H4           1.6590    -0.8650    -2.8590 hn         1 1X8       0.321300
     21 H5           5.6720    -0.8170     2.4840 hn         1 1X8       0.254800
     22 H6           5.5320    -0.0000     3.8920 hn         1 1X8       0.254800
     23 H7          -2.1870    -0.8140     3.1780 hn         1 1X8       0.253800
     24 H8          -3.5080     0.0040     2.6740 hn         1 1X8       0.253800
     25 H113         5.6720     0.8170     2.4840 hn         1 1X8       0.254800
     26 H163        -2.1970     0.8260     3.1760 hn         1 1X8       0.253800
@<TRIPOS>BOND
     1     1     2 1   
     2     1    13 2   
     3     1    17 1   
     4     2     3 ar  
     5     2     7 ar  
     6     3     4 ar  
     7     3    12 1   
     8     4     5 ar  
     9     4     9 1   
    10     5     6 ar  
    11     5    18 1   
    12     6     7 ar  
    13     7     8 1   
    14     8    19 1   
    15     8    20 1   
    16     9    10 2   
    17     9    11 1   
    18    11    21 1   
    19    11    22 1   
    20    11    25 1   
    21    12    13 1   
    22    13    14 1   
    23    14    15 2   
    24    14    16 1   
    25    16    23 1   
    26    16    24 1   
    27    16    26 1   
@<TRIPOS>SUBSTRUCTURE
     1 1X8         1 TEMP              0 ****  ****    0 ROOT
