@<TRIPOS>MOLECULE
1X9
   34    36     1     0     0
SMALL
bcc


@<TRIPOS>ATOM
      1 O1           0.0000     0.0000     0.0000 o          1 1X9      -0.150000
      2 C1           1.2130     0.0000     0.0000 c2         1 1X9       0.059000
      3 N            1.8870     0.0000     1.1670 nz         1 1X9       0.818000
      4 C2           1.9660    -0.0090    -1.3060 cx         1 1X9      -0.102000
      5 O2           3.0460     0.9140    -1.4570 op         1 1X9      -0.196000
      6 C3           1.8640     1.2330    -2.1940 cx         1 1X9       0.044000
      7 C1'          1.0190     2.3790    -1.7050 c2         1 1X9       0.228000
      8 O1'          1.5410     3.3300    -1.1720 o          1 1X9      -0.250000
      9 C2'         -0.4770     2.3410    -1.8810 c3         1 1X9      -0.178000
     10 C3'         -1.1030     3.5570    -1.1940 DU         1 1X9       0.009000
     11 C4'         -2.5990     3.5190    -1.3690 c2         1 1X9      -0.098000
     12 C5'         -3.3830     3.5710    -0.3220 c2         1 1X9      -0.158000
     13 C6'         -4.8800     3.5320    -0.4960 DU         1 1X9       0.059000
     14 C7'         -5.4530     2.4080     0.3270 c2         1 1X9      -0.240000
     15 C8'         -6.3990     2.6510     1.1990 c2         1 1X9      -0.095000
     16 C9'         -6.9730     1.5250     2.0220 c3         1 1X9      -0.079000
     17 H1           1.9420     0.9350     1.5200 hn         1 1X9       0.049000
     18 H2           2.8100    -0.3550     1.0190 hn         1 1X9       0.049000
     19 H3           2.0870    -0.9430    -1.8410 h1         1 1X9       0.166000
     20 H4           1.9260     1.0370    -3.2580 h1         1 1X9       0.141000
     21 H5          -0.7170     2.3600    -2.9370 hc         1 1X9       0.096000
     22 H6          -0.8700     1.4340    -1.4370 hc         1 1X9       0.096000
     23 H7          -0.7110     4.4640    -1.6380 ha         1 1X9       0.065000
     24 H8          -0.8620     3.5400    -0.1380 ha         1 1X9       0.065000
     25 H9          -1.9970     2.6730    -1.0570 DU         1 1X9      -0.014000
     26 H10         -3.9520     2.6710    -0.5230 DU         1 1X9       0.062000
     27 H11         -5.1170     3.3720    -1.5410 ha         1 1X9       0.068000
     28 H12         -5.3060     4.4730    -0.1690 ha         1 1X9       0.068000
     29 H13         -5.1120     1.3920     0.1670 ha         1 1X9       0.109000
     30 H14         -6.7790     3.6590     1.3190 ha         1 1X9       0.111000
     31 H15         -6.2080     1.1350     2.6830 hc         1 1X9       0.050000
     32 H16         -7.3180     0.7370     1.3640 hc         1 1X9       0.050000
     33 H17         -7.8040     1.8950     2.6100 hc         1 1X9       0.050000
     34 HN3          1.4080    -0.5780     1.8290 hn         1 1X9       0.049000
@<TRIPOS>BOND
     1     1     2 1   
     2     2     3 1   
     3     2     4 1   
     4     3    17 1   
     5     3    18 1   
     6     3    34 1   
     7     4     5 1   
     8     4     6 1   
     9     4    19 1   
    10     5     6 1   
    11     6     7 1   
    12     6    20 1   
    13     7     8 1   
    14     7     9 1   
    15     9    10 1   
    16     9    21 1   
    17     9    22 1   
    18    10    11 1   
    19    10    23 1   
    20    10    24 1   
    21    10    25 1   
    22    11    12 1   
    23    11    25 1   
    24    12    13 1   
    25    12    26 1   
    26    13    14 1   
    27    13    26 1   
    28    13    27 1   
    29    13    28 1   
    30    14    15 1   
    31    14    29 1   
    32    15    16 1   
    33    15    30 1   
    34    16    31 1   
    35    16    32 1   
    36    16    33 1   
@<TRIPOS>SUBSTRUCTURE
     1 1X9         1 TEMP              0 ****  ****    0 ROOT
