@<TRIPOS>MOLECULE
molecule
   34    34     1     0     0
SMALL
bcc


@<TRIPOS>ATOM
      1 O1           0.0000     0.0000     0.0000 o          1 1X9      -0.379100
      2 C1           1.2130     0.0000     0.0000 c          1 1X9       0.513100
      3 N            1.8870     0.0000     1.1670 nz         1 1X9      -0.681400
      4 C2           1.9660    -0.0090    -1.3060 cx         1 1X9      -0.086900
      5 O2           3.0460     0.9140    -1.4570 op         1 1X9      -0.333600
      6 C3           1.8640     1.2330    -2.1940 cx         1 1X9       0.038100
      7 C1'          1.0190     2.3790    -1.7050 c          1 1X9       0.537100
      8 O1'          1.5410     3.3300    -1.1720 o          1 1X9      -0.460100
      9 C2'         -0.4770     2.3410    -1.8810 c3         1 1X9      -0.172400
     10 C3'         -1.1030     3.5570    -1.1940 c3         1 1X9      -0.031200
     11 C4'         -2.5990     3.5190    -1.3690 c2         1 1X9      -0.206200
     12 C5'         -3.3830     3.5710    -0.3220 c2         1 1X9      -0.136200
     13 C6'         -4.8800     3.5320    -0.4960 c3         1 1X9      -0.015000
     14 C7'         -5.4530     2.4080     0.3270 c2         1 1X9      -0.196200
     15 C8'         -6.3990     2.6510     1.1990 c2         1 1X9      -0.156200
     16 C9'         -6.9730     1.5250     2.0220 c3         1 1X9      -0.062900
     17 H1           1.4720    -0.6630     1.7920 hn         1 1X9       0.486800
     18 H2           2.8410    -0.2510     1.0010 hn         1 1X9       0.486800
     19 H3           2.0870    -0.9430    -1.8410 h1         1 1X9       0.170700
     20 H4           1.9260     1.0370    -3.2580 h1         1 1X9       0.151700
     21 H5          -0.8700     1.4340    -1.4370 hc         1 1X9       0.084700
     22 H6          -0.7170     2.3600    -2.9370 hc         1 1X9       0.084700
     23 H7          -0.8620     3.5390    -0.1380 hc         1 1X9       0.059200
     24 H8          -0.7110     4.4640    -1.6380 hc         1 1X9       0.059200
     25 H9          -3.0250     3.4480    -2.3620 ha         1 1X9       0.136000
     26 H10         -2.9560     3.6420     0.6710 ha         1 1X9       0.122000
     27 H11         -5.3060     4.4730    -0.1690 hc         1 1X9       0.060200
     28 H12         -5.1170     3.3720    -1.5410 hc         1 1X9       0.060200
     29 H13         -5.0830     1.3980     0.1960 ha         1 1X9       0.121000
     30 H14         -6.7700     3.6610     1.3290 ha         1 1X9       0.129000
     31 H15         -7.2370     0.7010     1.3710 hc         1 1X9       0.044033
     32 H16         -6.2360     1.1940     2.7440 hc         1 1X9       0.044033
     33 H17         -7.8570     1.8730     2.5420 hc         1 1X9       0.044033
     34 HN3          1.8490     0.9130     1.5740 hn         1 1X9       0.486800
@<TRIPOS>BOND
     1     3     2 1
     2     5     4 1
     3     5     6 1
     4     2     4 1
     5     2     1 2
     6     8     7 2
     7     4     6 1
     8     7     9 1
     9     7     6 1
    10     9    10 1
    11    10    11 1
    12    11    12 2
    13    12    13 1
    14    15    16 1
    15    15    14 2
    16    13    14 1
    17     3    17 1
    18     3    18 1
    19     4    19 1
    20     6    20 1
    21     9    21 1
    22     9    22 1
    23    10    23 1
    24    10    24 1
    25    11    25 1
    26    12    26 1
    27    13    27 1
    28    13    28 1
    29    14    29 1
    30    15    30 1
    31    16    31 1
    32    16    32 1
    33    16    33 1
    34    34     3 1
@<TRIPOS>SUBSTRUCTURE
     1 1X9         1 TEMP              0 ****  ****    0 ROOT
