@<TRIPOS>MOLECULE
1X9
   34    34     1     0     0
SMALL
bcc


@<TRIPOS>ATOM
      1 O1           0.3870     0.1170    -1.5380 o          1 1X9      -0.371100
      2 C1           1.2580     0.1720    -0.6880 c          1 1X9       0.560100
      3 N            0.8420     0.6800     0.6680 nz         1 1X9      -0.757400
      4 C2           2.6810    -0.2510    -0.8290 cx         1 1X9      -0.010900
      5 O2           3.5330    -0.0140     0.2910 op         1 1X9      -0.357600
      6 C3           3.8170     0.7250    -0.9140 cx         1 1X9       0.002100
      7 C1'          3.6160     2.2170    -0.8350 c          1 1X9       0.613100
      8 O1'          2.6540     2.6740    -0.2050 o          1 1X9      -0.571100
      9 C2'          4.6540     3.0290    -1.5340 c3         1 1X9      -0.166400
     10 C3'          4.2050     4.4470    -1.8390 c3         1 1X9      -0.039200
     11 C4'          3.2180     4.4870    -2.9440 c2         1 1X9      -0.227200
     12 C5'          3.3090     5.2470    -4.0390 c2         1 1X9      -0.109200
     13 C6'          4.4330     6.1650    -4.3510 c3         1 1X9      -0.024000
     14 C7'          4.3080     6.7740    -5.6990 c2         1 1X9      -0.194200
     15 C8'          5.3100     6.8220    -6.5810 c2         1 1X9      -0.145200
     16 C9'          5.2050     7.4550    -7.9100 c3         1 1X9      -0.070900
     17 H1           1.1850     0.0460     1.3970 hn         1 1X9       0.484467
     18 H2           1.2720     1.6120     0.8170 hn         1 1X9       0.484467
     19 H3           2.7660    -1.2580    -1.3040 h1         1 1X9       0.176700
     20 H4           4.7480     0.4050    -1.4350 h1         1 1X9       0.153700
     21 H5           4.9540     2.5130    -2.4860 hc         1 1X9       0.095200
     22 H6           5.5580     3.0580    -0.8610 hc         1 1X9       0.095200
     23 H7           3.7440     4.8990    -0.9180 hc         1 1X9       0.072200
     24 H8           5.1150     5.0550    -2.0930 hc         1 1X9       0.072200
     25 H9           2.3360     3.8440    -2.7920 ha         1 1X9       0.107000
     26 H10          2.4990     5.2190    -4.7890 ha         1 1X9       0.135000
     27 H11          4.4520     6.9940    -3.5860 hc         1 1X9       0.058700
     28 H12          5.4100     5.6140    -4.2580 hc         1 1X9       0.058700
     29 H13          3.3220     7.2120    -5.9280 ha         1 1X9       0.128000
     30 H14          6.2960     6.3830    -6.3480 ha         1 1X9       0.118000
     31 H15          4.1850     7.8720    -8.0960 hc         1 1X9       0.048700
     32 H16          5.9480     8.2870    -7.9960 hc         1 1X9       0.048700
     33 H17          5.4300     6.7050    -8.7100 hc         1 1X9       0.048700
     34 HN3         -0.1790     0.7650     0.7260 hn         1 1X9       0.484467
@<TRIPOS>BOND
     1     1     2 2   
     2     2     3 1   
     3     2     4 1   
     4     3    17 1   
     5     3    18 1   
     6     3    34 1   
     7     4     5 1   
     8     4     6 1   
     9     4    19 1   
    10     5     6 1   
    11     6     7 1   
    12     6    20 1   
    13     7     8 2   
    14     7     9 1   
    15     9    10 1   
    16     9    21 1   
    17     9    22 1   
    18    10    11 1   
    19    10    23 1   
    20    10    24 1   
    21    11    12 2   
    22    11    25 1   
    23    12    13 1   
    24    12    26 1   
    25    13    14 1   
    26    13    27 1   
    27    13    28 1   
    28    14    15 2   
    29    14    29 1   
    30    15    16 1   
    31    15    30 1   
    32    16    31 1   
    33    16    32 1   
    34    16    33 1   
@<TRIPOS>SUBSTRUCTURE
     1 1X9         1 TEMP              0 ****  ****    0 ROOT
