@<TRIPOS>MOLECULE
1XA
   23    24     1     0     0
SMALL
bcc


@<TRIPOS>ATOM
      1 CAI         0.0070   -0.3590    0.0720 ca        1 1XA     -0.132500
      2 CAJ         1.4000   -0.3700    0.0570 ca        1 1XA     -0.126000
      3 CAK         2.1170   -0.0530    1.2110 ca        1 1XA     -0.134000
      4 CAL         1.4340    0.2720    2.3820 ca        1 1XA     -0.126000
      5 CAM         0.0410    0.2830    2.4040 ca        1 1XA     -0.132500
      6 CAH        -0.6900   -0.0290    1.2460 ca        1 1XA      0.012000
      7 CAD        -2.1270   -0.0020    1.2590 cc        1 1XA     -0.353600
      8 CAE        -3.0600   -0.9320    0.6190 cc        1 1XA      0.372600
      9 CAG        -2.6740   -2.1130   -0.1770 c3        1 1XA     -0.137400
     10 NAA        -4.3240   -0.5440    0.8800 nd        1 1XA     -0.387300
     11 OAB        -4.3100    0.5530    1.6200 os        1 1XA     -0.140100
     12 CAC        -2.9630    0.9260    1.8950 cd        1 1XA      0.497600
     13 NAF        -2.7500    1.9950    2.7200 nh        1 1XA     -0.909500
     14 H1         -0.5560   -0.6040   -0.8420 ha        1 1XA      0.136000
     15 H2          1.9340   -0.6290   -0.8680 ha        1 1XA      0.132000
     16 H3          3.2160   -0.0610    1.1970 ha        1 1XA      0.132000
     17 H4          1.9960    0.5160    3.2960 ha        1 1XA      0.132000
     18 H5         -0.4890    0.5160    3.3400 ha        1 1XA      0.136000
     19 H6         -1.6750   -2.4840    0.1630 hc        1 1XA      0.060033
     20 H7         -3.4210   -2.9390   -0.0740 hc        1 1XA      0.060033
     21 H8         -2.6050   -1.8320   -1.2590 hc        1 1XA      0.060033
     22 H9         -1.8620    2.4320    2.6050 hn        1 1XA      0.425300
     23 H10        -3.5250    2.6090    2.8440 hn        1 1XA      0.425300
@<TRIPOS>BOND
     1    1    2 ar  
     2    1    6 ar  
     3    1   14 1   
     4    2    3 ar  
     5    2   15 1   
     6    3    4 ar  
     7    3   16 1   
     8    4    5 ar  
     9    4   17 1   
    10    5    6 ar  
    11    5   18 1   
    12    6    7 1   
    13    7    8 1   
    14    7   12 2   
    15    8    9 1   
    16    8   10 2   
    17    9   19 1   
    18    9   20 1   
    19    9   21 1   
    20   10   11 1   
    21   11   12 1   
    22   12   13 1   
    23   13   22 1   
    24   13   23 1   
@<TRIPOS>SUBSTRUCTURE
     1 1XA         1 TEMP              0 ****  ****    0 ROOT
