@<TRIPOS>MOLECULE
1XB
   46    45     1     0     0
SMALL
bcc


@<TRIPOS>ATOM
      1 C23         3.4420   -2.7590   -1.1810 c1        1 1XB      0.184000
      2 C28        -0.5450   -0.6370   -1.4380 c1        1 1XB      0.184000
      3 C24         2.7770   -1.7550   -1.1030 c1        1 1XB     -0.315500
      4 C27         0.6590   -0.6180   -1.2560 c1        1 1XB     -0.315500
      5 C8         -4.4990    1.1950    2.9360 c2        1 1XB     -0.060000
      6 C22        -1.2060    0.8470    2.5820 c3        1 1XB     -0.192000
      7 C5         -2.9830   -0.8300    3.0680 c2        1 1XB     -0.128000
      8 C3         -2.9560   -2.1010    3.7330 c2        1 1XB     -0.094000
      9 C25         2.0040   -0.6060   -1.0170 c2        1 1XB      0.458000
     10 C6         -4.1120   -0.0940    3.4080 c2        1 1XB     -0.324000
     11 C9         -4.7570    1.6230    1.6390 c2        1 1XB      0.050000
     12 C12        -4.7550    2.3910    3.7610 c2        1 1XB     -0.092000
     13 C2         -4.0620   -2.2630    4.5560 c2        1 1XB     -0.365000
     14 C21        -1.9100   -0.4060    2.1480 c2        1 1XB      0.094000
     15 C14        -4.7280    1.0280    0.3850 c1        1 1XB      0.007000
     16 C1         -4.3480   -3.4360    5.3900 c3        1 1XB     -0.158000
     17 C16        -4.6940    0.5080   -0.6940 c1        1 1XB     -0.169000
     18 N11        -5.1210    3.4020    2.9470 n2        1 1XB      0.011000
     19 N20        -1.5670   -1.0420    1.0810 n2        1 1XB     -0.310000
     20 N18        -5.6750   -0.1140   -2.7950 n         1 1XB     -0.393000
     21 O19        -3.5230   -0.7070   -2.3270 o         1 1XB     -0.428000
     22 O10        -5.1340    2.9920    1.7010 os        1 1XB     -0.032000
     23 S7         -5.0690   -0.9360    4.4980 ss        1 1XB      0.654000
     24 CL2         2.7560    0.8220   -0.6130 cl        1 1XB      0.195000
     25 H1         -0.4820    1.2210    1.8190 hc        1 1XB      0.100333
     26 H2         -0.6540    0.6370    3.5320 hc        1 1XB      0.100333
     27 H3         -1.9660    1.6440    2.7800 hc        1 1XB      0.100333
     28 H4         -1.6140   -0.6560   -1.6190 ha        1 1XB      0.294500
     29 H5         -2.0880   -1.8750    0.8930 hn        1 1XB      0.153000
     30 H6         -2.0720   -3.7040    2.6350 hc        1 1XB      0.088667
     31 H7         -1.8510   -3.7920    4.4330 hc        1 1XB      0.088667
     32 H8         -0.8910   -2.5970    3.4590 hc        1 1XB      0.088667
     33 H9         -3.6220    2.8970    5.4970 hc        1 1XB      0.108000
     34 H10        -4.6940    1.4360    5.6650 hc        1 1XB      0.108000
     35 H11        -5.4150    3.1080    5.6780 hc        1 1XB      0.108000
     36 H12        -3.5310   -3.5880    6.1420 hc        1 1XB      0.098000
     37 H13        -5.3150   -3.3180    5.9400 hc        1 1XB      0.098000
     38 H14        -4.4120   -4.3580    4.7580 hc        1 1XB      0.098000
     39 H15        -2.8880   -2.8460   -1.4340 ha        1 1XB      0.001500
     40 H16        -2.2340   -2.7750   -1.2720 ha        1 1XB      0.001500
     41 H17        -6.5160    0.3310   -2.5240 hn        1 1XB      0.247500
     42 H18        -5.6240   -0.5530   -3.6830 hn        1 1XB      0.247500
     43 C4         -1.8870   -3.0950    3.5580 c3        1 1XB     -0.163000
     44 C17        -4.5860   -0.1370   -1.9740 c2        1 1XB      0.442000
     45 H183        4.0360   -3.6470   -1.2490 ha        1 1XB      0.294500
     46 C13        -4.6190    2.4640    5.2280 c3        1 1XB     -0.165000
@<TRIPOS>BOND
     1    1    3 1   
     2    1   45 1   
     3    2    4 1   
     4    2   28 1   
     5    3    9 1   
     6    4    9 1   
     7    5   10 1   
     8    5   11 1   
     9    5   12 1   
    10    6   14 1   
    11    6   25 1   
    12    6   26 1   
    13    6   27 1   
    14    7    8 1   
    15    7   10 1   
    16    7   14 1   
    17    8   13 1   
    18    8   43 1   
    19    9   24 1   
    20   10   23 1   
    21   11   15 1   
    22   11   22 1   
    23   12   18 1   
    24   12   46 1   
    25   13   16 1   
    26   13   23 1   
    27   14   19 1   
    28   15   17 1   
    29   16   36 1   
    30   16   37 1   
    31   16   38 1   
    32   17   44 1   
    33   18   22 1   
    34   19   29 1   
    35   20   41 1   
    36   20   42 1   
    37   20   44 1   
    38   21   44 1   
    39   30   43 1   
    40   31   43 1   
    41   32   43 1   
    42   33   46 1   
    43   34   46 1   
    44   35   46 1   
    45   39   40 1   
@<TRIPOS>SUBSTRUCTURE
     1 1XB         1 TEMP              0 ****  ****    0 ROOT
