@<TRIPOS>MOLECULE
1XD
   45    48     1     0     0
SMALL
bcc


@<TRIPOS>ATOM
      1 C4           0.0000     0.0000     0.0000 ca         1 1XD       0.001500
      2 C5           1.3820     0.0000     0.0000 ca         1 1XD      -0.115000
      3 C6           2.0730     0.0000     1.1980 ca         1 1XD      -0.074300
      4 C7           3.5800     0.0000     1.1980 c3         1 1XD       0.106300
      5 C13          5.4220     5.3710     1.2280 cc         1 1XD      -0.279300
      6 C15          7.4650     6.8090     1.2140 cc         1 1XD      -0.442100
      7 C24         -3.1790    -2.3460     2.3920 ca         1 1XD      -0.045500
      8 C26         -3.7830    -4.3330     1.1950 ca         1 1XD      -0.119000
      9 C28         -3.1780    -2.3450    -0.0020 ca         1 1XD      -0.045500
     10 C1           1.3810    -0.0010     2.3940 ca         1 1XD      -0.115000
     11 C2          -0.0020    -0.0010     2.3940 ca         1 1XD       0.001500
     12 C3          -0.6920    -0.0010     1.1970 ca         1 1XD      -0.142500
     13 N8           4.0670     1.3820     1.1990 ns         1 1XD      -0.200900
     14 C9           5.3920     1.6290     1.2000 c          1 1XD       0.606700
     15 O10          6.1830     0.7050     1.1990 o          1 1XD      -0.644100
     16 C11          5.8840     3.0210     1.2000 cd         1 1XD      -0.209600
     17 C12          4.9690     4.1040     1.2200 cd         1 1XD      -0.075000
     18 N14          6.7630     5.6380     1.2150 na         1 1XD       0.628700
     19 C16          8.7810     6.4870     1.1990 cd         1 1XD       0.059600
     20 N17          8.8940     5.1590     1.1910 nd         1 1XD      -0.228600
     21 C18          7.6830     4.6200     1.2020 cc         1 1XD      -0.271300
     22 C19          7.2430     3.2840     1.2010 cc         1 1XD       0.070000
     23 S20         -2.4540    -0.0030     1.1960 sy         1 1XD       0.964600
     24 O21         -2.8560     0.5420     2.4450 o          1 1XD      -0.583800
     25 O22         -2.8550     0.5420    -0.0540 o          1 1XD      -0.583800
     26 C23         -2.9740    -1.6860     1.1950 ca         1 1XD      -0.096500
     27 C25         -3.5820    -3.6700     2.3930 ca         1 1XD       0.106900
     28 C27         -3.5770    -3.6710    -0.0040 ca         1 1XD       0.106900
     29 F29         -3.7660    -4.3180    -1.1740 f          1 1XD      -0.117900
     30 F30         -3.7820    -4.3150     3.5640 f          1 1XD      -0.117900
     31 H1          -0.5410     0.0000    -0.9380 ha         1 1XD       0.125000
     32 H2           1.9240     0.0000    -0.9380 ha         1 1XD       0.117000
     33 H3           3.9420    -0.5110     2.0820 h1         1 1XD       0.033700
     34 H4           3.9410    -0.5090     0.3120 h1         1 1XD       0.033700
     35 H6           7.0480     7.8090     1.2230 h4         1 1XD       0.161000
     36 H7          -3.0200    -1.8280     3.3300 ha         1 1XD       0.141000
     37 H8          -4.0970    -5.3700     1.1940 ha         1 1XD       0.136000
     38 H9          -3.0170    -1.8270    -0.9400 ha         1 1XD       0.141000
     39 H10          1.9220    -0.0010     3.3320 ha         1 1XD       0.117000
     40 H11         -0.5440    -0.0020     3.3320 ha         1 1XD       0.125000
     41 H12          3.4160     2.1420     1.1930 hn         1 1XD       0.181500
     42 H13          3.9040     3.9110     1.2290 ha         1 1XD       0.114000
     43 H14          9.6040     7.1910     1.1940 h4         1 1XD       0.141000
     44 H15          7.9500     2.4810     1.0290 ha         1 1XD       0.146000
     45 H5           4.7140     6.1910     1.2430 h4         1 1XD       0.139000
@<TRIPOS>BOND
     1     1     2 ar  
     2     1    12 ar  
     3     1    31 1   
     4     2     3 ar  
     5     2    32 1   
     6     3     4 1   
     7     3    10 ar  
     8     4    13 1   
     9     4    33 1   
    10     4    34 1   
    11     5    17 2   
    12     5    18 1   
    13     5    45 1   
    14     6    18 1   
    15     6    19 2   
    16     6    35 1   
    17     7    26 ar  
    18     7    27 ar  
    19     7    36 1   
    20     8    27 ar  
    21     8    28 ar  
    22     8    37 1   
    23     9    26 ar  
    24     9    28 ar  
    25     9    38 1   
    26    10    11 ar  
    27    10    39 1   
    28    11    12 ar  
    29    11    40 1   
    30    12    23 1   
    31    13    14 1   
    32    13    41 1   
    33    14    15 2   
    34    14    16 1   
    35    16    17 1   
    36    16    22 2   
    37    17    42 1   
    38    18    21 1   
    39    19    20 1   
    40    19    43 1   
    41    20    21 2   
    42    21    22 1   
    43    22    44 1   
    44    23    24 2   
    45    23    25 2   
    46    23    26 1   
    47    27    30 1   
    48    28    29 1   
@<TRIPOS>SUBSTRUCTURE
     1 1XD         1 TEMP              0 ****  ****    0 ROOT
