@<TRIPOS>MOLECULE
1XD
   46    49     1     0     0
SMALL
bcc


@<TRIPOS>ATOM
      1 C4           0.3810     0.2830     1.0720 ca         1 1XD      -0.017500
      2 C5           1.7570     0.1400     0.8910 ca         1 1XD      -0.126000
      3 C6           2.4900    -0.6620     1.7710 ca         1 1XD      -0.128300
      4 C7           3.9580    -0.8400     1.5710 c3         1 1XD       0.163100
      5 C13          5.9870     3.3880     4.9170 cc         1 1XD      -0.038300
      6 C15          6.0160     5.9110     5.0900 cc         1 1XD      -0.156100
      7 C24         -2.9010    -1.1480     0.1080 ca         1 1XD      -0.078500
      8 C26         -3.6850    -3.4500    -0.1100 ca         1 1XD      -0.138000
      9 C28         -2.8110    -2.6260     2.0160 ca         1 1XD      -0.078500
     10 C1           1.8450    -1.3190     2.8250 ca         1 1XD      -0.126000
     11 C2           0.4700    -1.1660     2.9940 ca         1 1XD      -0.017500
     12 C3          -0.2740    -0.3640     2.1230 ca         1 1XD      -0.303500
     13 N8           4.7550     0.1080     2.4170 ny         1 1XD      -0.675800
     14 C9           4.9300     1.4940     1.8120 c          1 1XD       0.576700
     15 O10          4.7800     1.5690     0.5980 o          1 1XD      -0.441100
     16 C11          5.2430     2.5680     2.7430 cd         1 1XD      -0.236600
     17 C12          5.7060     2.3360     4.0780 cd         1 1XD      -0.169000
     18 N14          5.8230     4.6860     4.4860 na         1 1XD       0.027700
     19 C16          5.6790     6.8930     4.1060 cd         1 1XD       0.031600
     20 N17          5.2890     6.3100     2.9290 nd         1 1XD      -0.199600
     21 C18          5.3700     4.9530     3.1360 cc         1 1XD      -0.104300
     22 C19          5.0890     3.8670     2.2720 cc         1 1XD       0.076000
     23 S20         -1.9510    -0.1260     2.3840 sy         1 1XD       1.432600
     24 O21         -2.2010    -0.3640     3.7380 o          1 1XD      -0.633800
     25 O22         -2.2900     1.1120     1.8330 o          1 1XD      -0.633800
     26 C23         -2.5730    -1.3730     1.4480 ca         1 1XD      -0.336500
     27 C25         -3.4510    -2.1830    -0.6690 ca         1 1XD       0.141400
     28 C27         -3.3610    -3.6620     1.2410 ca         1 1XD       0.141400
     29 F29         -3.5820    -4.8740     1.8010 f          1 1XD      -0.117400
     30 F30         -3.7590    -1.9560    -1.9660 f          1 1XD      -0.117400
     31 H1          -0.1970     0.9320     0.3870 ha         1 1XD       0.175000
     32 H2           2.2610     0.6560     0.0570 ha         1 1XD       0.150500
     33 H3           4.2670    -1.8860     1.8630 hx         1 1XD       0.119200
     34 H4           4.2380    -0.6680     0.4890 hx         1 1XD       0.119200
     35 H7          -2.7520    -0.1510    -0.3440 ha         1 1XD       0.174500
     36 H8          -4.1200    -4.2600    -0.7160 ha         1 1XD       0.182000
     37 H9          -2.5920    -2.8060     3.0840 ha         1 1XD       0.174500
     38 H10          2.4100    -1.9680     3.5110 ha         1 1XD       0.150500
     39 H11         -0.0390    -1.6710     3.8370 ha         1 1XD       0.175000
     40 H12          5.6910    -0.2830     2.5680 hn         1 1XD       0.457800
     41 H13          5.8790     1.3220     4.4620 ha         1 1XD       0.138000
     42 H14          5.7110     7.9810     4.2300 h4         1 1XD       0.213000
     43 H15          4.7510     4.0830     1.2410 ha         1 1XD       0.198000
     44 H5           6.3530     3.2510     5.9510 h4         1 1XD       0.189000
     45 H82          4.2910     0.2140     3.3280 hn         1 1XD       0.457800
     46 H6           6.3600     6.0290     6.1180 h4         1 1XD       0.209000
@<TRIPOS>BOND
     1     1     2 ar  
     2     1    12 ar  
     3     1    31 1   
     4     2     3 ar  
     5     2    32 1   
     6     3     4 1   
     7     3    10 ar  
     8     4    13 1   
     9     4    33 1   
    10     4    34 1   
    11     5    17 2   
    12     5    18 1   
    13     5    44 1   
    14     6    18 1   
    15     6    19 2   
    16     6    46 1   
    17     7    26 ar  
    18     7    27 ar  
    19     7    35 1   
    20     8    27 ar  
    21     8    28 ar  
    22     8    36 1   
    23     9    26 ar  
    24     9    28 ar  
    25     9    37 1   
    26    10    11 ar  
    27    10    38 1   
    28    11    12 ar  
    29    11    39 1   
    30    12    23 1   
    31    13    14 1   
    32    13    40 1   
    33    13    45 1   
    34    14    15 2   
    35    14    16 1   
    36    16    17 1   
    37    16    22 2   
    38    17    41 1   
    39    18    21 1   
    40    19    20 1   
    41    19    42 1   
    42    20    21 2   
    43    21    22 1   
    44    22    43 1   
    45    23    24 2   
    46    23    25 2   
    47    23    26 1   
    48    27    30 1   
    49    28    29 1   
@<TRIPOS>SUBSTRUCTURE
     1 1XD         1 TEMP              0 ****  ****    0 ROOT
