@<TRIPOS>MOLECULE
1XF
   27    28     1     0     0
SMALL
bcc


@<TRIPOS>ATOM
      1 C01         -0.1590     0.6110     0.4820 ca         1 1XF      -0.133000
      2 C02          1.2050     0.5550     0.2040 ca         1 1XF      -0.118000
      3 C03          2.1200     0.2690     1.2130 ca         1 1XF      -0.142000
      4 C04          1.6780     0.0360     2.5330 ca         1 1XF       0.055600
      5 C05          0.2920     0.0940     2.8070 ca         1 1XF      -0.147600
      6 C06         -0.6120     0.3740     1.7780 ca         1 1XF      -0.083000
      7 C07         -0.2470    -0.1970     4.1630 c          1 1XF       0.736200
      8 O08         -1.0970    -1.0640     4.3940 o          1 1XF      -0.605500
      9 O09          0.2100     0.4810     5.2230 os         1 1XF      -0.306900
     10 N10          2.6200    -0.2920     3.5330 ns         1 1XF      -0.496100
     11 C11          3.0620     0.5710     4.5190 c          1 1XF       0.735500
     12 O12          3.9030     0.1630     5.3440 o          1 1XF      -0.631500
     13 C13          2.5700     1.9930     4.5450 c3         1 1XF       0.038900
     14 S14          0.8560     2.1130     4.9900 s4         1 1XF      -0.558400
     15 C15          0.4440     3.8460     5.2000 c          1 1XF       0.675000
     16 O16         -0.6020     4.4420     5.4010 o          1 1XF      -0.515100
     17 N17          1.6610     4.8430     5.2180 nz         1 1XF      -0.793400
     18 H1          -0.8790     0.8300    -0.3200 ha         1 1XF       0.140000
     19 H2           1.5650     0.7310    -0.8210 ha         1 1XF       0.136000
     20 H3           3.1940     0.2130     0.9730 ha         1 1XF       0.142000
     21 H4          -1.6900     0.3900     2.0050 ha         1 1XF       0.155000
     22 H6           2.9160    -1.2430     3.5780 hn         1 1XF       0.340500
     23 H7           3.1970     2.5380     5.2940 h1         1 1XF       0.069700
     24 H8           2.7270     2.4630     3.5430 h1         1 1XF       0.069700
     25 H9           2.2020     4.7200     4.3670 hn         1 1XF       0.411800
     26 H10          2.2530     4.6210     6.0150 hn         1 1XF       0.411800
     27 H173         1.3630     5.8150     5.2900 hn         1 1XF       0.411800
@<TRIPOS>BOND
     1     1     2 ar  
     2     1     6 ar  
     3     1    18 1   
     4     2     3 ar  
     5     2    19 1   
     6     3     4 ar  
     7     3    20 1   
     8     4     5 ar  
     9     4    10 1   
    10     5     6 ar  
    11     5     7 1   
    12     6    21 1   
    13     7     8 2   
    14     7     9 1   
    15     9    14 1   
    16    10    11 1   
    17    10    22 1   
    18    11    12 2   
    19    11    13 1   
    20    13    14 1   
    21    13    23 1   
    22    13    24 1   
    23    14    15 1   
    24    15    16 2   
    25    15    17 1   
    26    17    25 1   
    27    17    26 1   
    28    17    27 1   
@<TRIPOS>SUBSTRUCTURE
     1 1XF         1 TEMP              0 ****  ****    0 ROOT
