@<TRIPOS>MOLECULE
molecule
   27    27     1     0     0
SMALL
bcc


@<TRIPOS>ATOM
      1 C01          0.0000     0.0000     0.0000 ca         1 1XF      -0.155000
      2 C02          1.3850     0.0000     0.0000 ca         1 1XF      -0.136000
      3 C03          2.0850     0.0000     1.1890 ca         1 1XF      -0.152000
      4 C04          1.4010     0.0000     2.3980 ca         1 1XF       0.036600
      5 C05         -0.0030     0.0000     2.4030 ca         1 1XF      -0.115600
      6 C06         -0.6960     0.0060     1.1890 ca         1 1XF      -0.077000
      7 C07         -0.7400    -0.0010     3.6780 c          1 1XF       0.889200
      8 O08         -2.0840    -0.1000     3.6800 o          1 1XF      -0.834300
      9 O09         -0.1370     0.0890     4.7290 o          1 1XF      -0.834300
     10 N10          2.1050    -0.0050     3.6000 ns         1 1XF      -0.397100
     11 C11          3.2640    -0.6850     3.6990 c          1 1XF       0.656100
     12 O12          3.7360    -1.2240     2.7210 o          1 1XF      -0.626100
     13 C13          3.9730    -0.7760     5.0250 c3         1 1XF      -0.091300
     14 S14          5.4890    -1.7470     4.8340 ss         1 1XF      -0.003700
     15 C15          6.0980    -1.6930     6.4860 c          1 1XF       0.408700
     16 O16          5.4770    -1.0950     7.3440 o          1 1XF      -0.453100
     17 N17          7.2520    -2.3140     6.7990 nz         1 1XF      -0.664400
     18 H1          -0.5390     0.0020    -0.9400 ha         1 1XF       0.118000
     19 H2           1.9230    -0.0020    -0.9400 ha         1 1XF       0.115000
     20 H3           3.1680    -0.0000     1.1800 ha         1 1XF       0.136000
     21 H4          -1.7800     0.0060     1.1840 ha         1 1XF       0.166000
     22 H6           1.7720     0.5320     4.3760 hn         1 1XF       0.372500
     23 H7           3.3260    -1.2560     5.7490 h1         1 1XF       0.113700
     24 H8           4.2240     0.2200     5.3700 h1         1 1XF       0.113700
     25 H9           7.9060    -1.6450     7.1550 hn         1 1XF       0.470800
     26 H10          7.0770    -3.0120     7.4950 hn         1 1XF       0.470800
     27 H173         7.6300    -2.7480     5.9800 hn         1 1XF       0.470800
@<TRIPOS>BOND
     1    17    15 1
     2    16    15 2
     3    15    14 1
     4    14    13 1
     5    13    11 1
     6     9     7 1
     7    11    12 2
     8    11    10 1
     9    10     4 1
    10     7     5 1
    11     7     8 1
    12     4     5 ar
    13     4     3 ar
    14     5     6 ar
    15     3     2 ar
    16     6     1 ar
    17     2     1 ar
    18     1    18 1
    19     2    19 1
    20     3    20 1
    21     6    21 1
    22    10    22 1
    23    13    23 1
    24    13    24 1
    25    17    25 1
    26    17    26 1
    27    27    17 1
@<TRIPOS>SUBSTRUCTURE
     1 1XF         1 TEMP              0 ****  ****    0 ROOT
