@<TRIPOS>MOLECULE
1XF
   27    27     1     0     0
SMALL
bcc


@<TRIPOS>ATOM
      1 C01          0.0000     0.0000     0.0000 ca         1 1XF      -0.127000
      2 C02          1.3850     0.0000     0.0000 ca         1 1XF      -0.111000
      3 C03          2.0850     0.0000     1.1890 ca         1 1XF      -0.130000
      4 C04          1.4010     0.0000     2.3980 ca         1 1XF      -0.119400
      5 C05         -0.0030     0.0000     2.4030 ca         1 1XF      -0.110600
      6 C06         -0.6960     0.0060     1.1890 ca         1 1XF      -0.047000
      7 C07         -0.7400    -0.0010     3.6780 c          1 1XF       0.983200
      8 O08         -2.0840    -0.1000     3.6800 o          1 1XF      -0.879300
      9 O09         -0.1370     0.0890     4.7290 o          1 1XF      -0.879300
     10 N10          2.1050    -0.0050     3.6000 ns         1 1XF       0.067900
     11 C11          3.2640    -0.6850     3.6990 c          1 1XF       0.535100
     12 O12          3.7360    -1.2240     2.7210 o          1 1XF      -0.673100
     13 C13          3.9730    -0.7760     5.0250 c3         1 1XF       0.031700
     14 S14          5.4890    -1.7470     4.8340 ss         1 1XF      -0.098700
     15 C15          6.0980    -1.6930     6.4860 c          1 1XF       0.265700
     16 O16          5.4770    -1.0950     7.3440 o          1 1XF      -0.462100
     17 N17          7.2520    -2.3140     6.7990 nz         1 1XF       0.218600
     18 H1          -0.5390     0.0020    -0.9400 ha         1 1XF       0.094000
     19 H2           1.9230    -0.0020    -0.9400 ha         1 1XF       0.090000
     20 H3           3.1680    -0.0000     1.1800 ha         1 1XF       0.124000
     21 H4          -1.7800     0.0060     1.1840 ha         1 1XF       0.136000
     22 H6           1.7720     0.5320     4.3760 hn         1 1XF       0.221500
     23 H7           3.3260    -1.2560     5.7490 h1         1 1XF       0.074700
     24 H8           4.2240     0.2200     5.3700 h1         1 1XF       0.074700
     25 H9           7.9060    -1.6450     7.1550 hn         1 1XF       0.239800
     26 H10          7.0770    -3.0120     7.4950 hn         1 1XF       0.239800
     27 H173         7.6300    -2.7480     5.9800 hn         1 1XF       0.239800
@<TRIPOS>BOND
     1     1     2 ar  
     2     1     6 ar  
     3     1    18 1   
     4     2     3 ar  
     5     2    19 1   
     6     3     4 ar  
     7     3    20 1   
     8     4     5 ar  
     9     4    10 1   
    10     5     6 ar  
    11     5     7 1   
    12     6    21 1   
    13     7     8 1   
    14     7     9 1   
    15    10    11 1   
    16    10    22 1   
    17    11    12 2   
    18    11    13 1   
    19    13    14 1   
    20    13    23 1   
    21    13    24 1   
    22    14    15 1   
    23    15    16 2   
    24    15    17 1   
    25    17    25 1   
    26    17    26 1   
    27    17    27 1   
@<TRIPOS>SUBSTRUCTURE
     1 1XF         1 TEMP              0 ****  ****    0 ROOT
