@<TRIPOS>MOLECULE
1XG
   36    37     1     0     0
SMALL
bcc


@<TRIPOS>ATOM
      1 C1           0.0000     0.0000     0.0000 c2         1 1XG       0.024000
      2 N1           1.3490     0.0000     0.0000 nz         1 1XG       0.812000
      3 O1          -3.4850    -0.8570     2.8430 o          1 1XG      -0.246000
      4 C2          -0.7530     0.0000     1.3050 c3         1 1XG      -0.116000
      5 O2          -0.6060     0.0060    -1.0510 o          1 1XG      -0.143000
      6 C3          -2.2580     0.0000     1.0250 c3         1 1XG       0.044000
      7 O3          -2.6220    -1.2200     0.3780 oh         1 1XG      -0.296000
      8 C4          -3.0100     0.1240     2.3250 c2         1 1XG       0.205000
      9 C5          -3.1690     1.4730     2.9780 c3         1 1XG      -0.178000
     10 C6          -3.9680     1.3210     4.2740 DU         1 1XG       0.035000
     11 C7          -4.1270     2.6700     4.9270 c2         1 1XG      -0.166000
     12 C8          -5.3220     3.1160     5.2250 c2         1 1XG      -0.095000
     13 C9          -5.4810     4.4650     5.8780 DU         1 1XG       0.051000
     14 C10         -6.4190     5.3130     5.0570 c2         1 1XG      -0.206000
     15 C11         -7.4770     5.8460     5.6160 c2         1 1XG      -0.133000
     16 C12         -8.4140     6.6940     4.7950 c3         1 1XG      -0.074000
     17 H1           1.6820    -0.8190     0.4690 hn         1 1XG       0.043333
     18 H2           1.6820     0.0040    -0.9440 hn         1 1XG       0.043333
     19 H3          -0.4910     0.8840     1.8730 hc         1 1XG       0.106500
     20 H4          -0.4920    -0.8850     1.8730 hc         1 1XG       0.106500
     21 H5          -2.5050     0.8370     0.3830 h1         1 1XG       0.072000
     22 H6          -3.3950    -1.0810    -0.1430 ho         1 1XG       0.224000
     23 H7          -2.1920     1.8830     3.2010 hc         1 1XG       0.079500
     24 H8          -3.6960     2.1400     2.3050 hc         1 1XG       0.079500
     25 H9          -4.9450     0.9110     4.0500 ha         1 1XG       0.069000
     26 H10         -3.4420     0.6540     4.9460 ha         1 1XG       0.069000
     27 H11         -4.1880     1.7240     5.4520 DU         1 1XG       0.020000
     28 H12         -5.1480     3.3110     6.2760 DU         1 1XG       0.039000
     29 H13         -4.5160     4.9510     5.9410 ha         1 1XG       0.064000
     30 H14         -5.8880     4.3380     6.8740 ha         1 1XG       0.064000
     31 H15         -6.1910     5.5220     4.0190 ha         1 1XG       0.113000
     32 H16         -7.6530     5.7170     6.6770 ha         1 1XG       0.103000
     33 H17         -7.9080     7.6020     4.4910 hc         1 1XG       0.047667
     34 H18         -9.2850     6.9480     5.3880 hc         1 1XG       0.047667
     35 H19         -8.7240     6.1420     3.9160 hc         1 1XG       0.047667
     36 H131         1.6820     0.8180     0.4700 hn         1 1XG       0.043333
@<TRIPOS>BOND
     1     1     2 1   
     2     1     4 1   
     3     1     5 1   
     4     2    17 1   
     5     2    18 1   
     6     2    36 1   
     7     3     8 1   
     8     4     6 1   
     9     4    19 1   
    10     4    20 1   
    11     6     7 1   
    12     6     8 1   
    13     6    21 1   
    14     7    22 1   
    15     8     9 1   
    16     9    10 1   
    17     9    23 1   
    18     9    24 1   
    19    10    11 1   
    20    10    25 1   
    21    10    26 1   
    22    10    27 1   
    23    11    12 1   
    24    11    27 1   
    25    12    13 1   
    26    12    28 1   
    27    13    14 1   
    28    13    28 1   
    29    13    29 1   
    30    13    30 1   
    31    14    15 1   
    32    14    31 1   
    33    15    16 1   
    34    15    32 1   
    35    16    33 1   
    36    16    34 1   
    37    16    35 1   
@<TRIPOS>SUBSTRUCTURE
     1 1XG         1 TEMP              0 ****  ****    0 ROOT
