@<TRIPOS>MOLECULE
1XG
   36    35     1     0     0
SMALL
bcc


@<TRIPOS>ATOM
      1 C1          -0.2920     0.1310    -0.2790 c          1 1XG       0.568100
      2 N1           0.8830    -0.6630    -0.8120 nz         1 1XG      -0.761400
      3 O1          -0.2010    -1.2770     3.6200 o          1 1XG      -0.481100
      4 C2          -0.5720    -0.0260     1.1830 c3         1 1XG      -0.163400
      5 O2          -0.8730     0.8110    -1.1060 o          1 1XG      -0.391100
      6 C3          -1.3200    -1.3220     1.4990 c3         1 1XG       0.036100
      7 O3          -0.7290    -2.3540     0.7170 oh         1 1XG      -0.653800
      8 C4          -1.1930    -1.6490     2.9970 c          1 1XG       0.541100
      9 C5          -2.3370    -2.4350     3.5490 c3         1 1XG      -0.168400
     10 C6          -2.1820    -2.7940     5.0150 c3         1 1XG      -0.037200
     11 C7          -2.3860    -1.6190     5.8960 c2         1 1XG      -0.218200
     12 C8          -3.2600    -1.5460     6.9040 c2         1 1XG      -0.121200
     13 C9          -4.2000    -2.6250     7.3000 c3         1 1XG      -0.023000
     14 C10         -5.1440    -2.1900     8.3610 c2         1 1XG      -0.188200
     15 C11         -6.4600    -2.4120     8.3110 c2         1 1XG      -0.151200
     16 C12         -7.4010    -2.0120     9.3750 c3         1 1XG      -0.069900
     17 H1           1.0110    -0.4880    -1.8150 hn         1 1XG       0.475133
     18 H2           1.7370    -0.4070    -0.3100 hn         1 1XG       0.475133
     19 H3          -1.2110     0.8460     1.5040 hc         1 1XG       0.133700
     20 H4           0.3840     0.0120     1.7810 hc         1 1XG       0.133700
     21 H5          -2.4070    -1.2220     1.2170 h1         1 1XG       0.088700
     22 H6          -1.1230    -3.1960     0.9880 ho         1 1XG       0.458000
     23 H7          -2.4370    -3.3760     2.9410 hc         1 1XG       0.077200
     24 H8          -3.2790    -1.8370     3.4060 hc         1 1XG       0.077200
     25 H9          -1.1490    -3.2030     5.1920 hc         1 1XG       0.065700
     26 H10         -2.9150    -3.6100     5.2580 hc         1 1XG       0.065700
     27 H11         -1.7130    -0.7710     5.6820 ha         1 1XG       0.124000
     28 H12         -3.3080    -0.6280     7.5150 ha         1 1XG       0.135000
     29 H13         -3.6070    -3.5020     7.6890 hc         1 1XG       0.055700
     30 H14         -4.7650    -2.9890     6.3970 hc         1 1XG       0.055700
     31 H15         -4.6810    -1.6790     9.2210 ha         1 1XG       0.128000
     32 H16         -6.9200    -2.9240     7.4490 ha         1 1XG       0.117000
     33 H17         -7.9200    -2.9150     9.7860 hc         1 1XG       0.047033
     34 H18         -8.1800    -1.3230     8.9600 hc         1 1XG       0.047033
     35 H19         -6.8840    -1.4910    10.2180 hc         1 1XG       0.047033
     36 H131         0.7010    -1.6680    -0.6590 hn         1 1XG       0.475133
@<TRIPOS>BOND
     1     1     2 1   
     2     1     4 1   
     3     1     5 2   
     4     2    17 1   
     5     2    18 1   
     6     2    36 1   
     7     3     8 2   
     8     4     6 1   
     9     4    19 1   
    10     4    20 1   
    11     6     7 1   
    12     6     8 1   
    13     6    21 1   
    14     7    22 1   
    15     8     9 1   
    16     9    10 1   
    17     9    23 1   
    18     9    24 1   
    19    10    11 1   
    20    10    25 1   
    21    10    26 1   
    22    11    12 2   
    23    11    27 1   
    24    12    13 1   
    25    12    28 1   
    26    13    14 1   
    27    13    29 1   
    28    13    30 1   
    29    14    15 2   
    30    14    31 1   
    31    15    16 1   
    32    15    32 1   
    33    16    33 1   
    34    16    34 1   
    35    16    35 1   
@<TRIPOS>SUBSTRUCTURE
     1 1XG         1 TEMP              0 ****  ****    0 ROOT
