@<TRIPOS>MOLECULE
molecule
   36    35     1     0     0
SMALL
bcc


@<TRIPOS>ATOM
      1 C1           0.0000     0.0000     0.0000 c          1 1XG       0.482100
      2 N1           1.3490     0.0000     0.0000 nz         1 1XG      -0.686400
      3 O1          -3.4850    -0.8570     2.8430 o          1 1XG      -0.448100
      4 C2          -0.7530     0.0000     1.3050 c3         1 1XG      -0.150400
      5 O2          -0.6060     0.0060    -1.0510 o          1 1XG      -0.380100
      6 C3          -2.2580     0.0000     1.0250 c3         1 1XG       0.059100
      7 O3          -2.6220    -1.2200     0.3780 oh         1 1XG      -0.582800
      8 C4          -3.0100     0.1240     2.3250 c          1 1XG       0.517100
      9 C5          -3.1690     1.4730     2.9780 c3         1 1XG      -0.175400
     10 C6          -3.9680     1.3210     4.2740 c3         1 1XG      -0.031200
     11 C7          -4.1270     2.6700     4.9270 c2         1 1XG      -0.214200
     12 C8          -5.3220     3.1160     5.2250 c2         1 1XG      -0.131200
     13 C9          -5.4810     4.4650     5.8780 c3         1 1XG      -0.016000
     14 C10         -6.4190     5.3130     5.0570 c2         1 1XG      -0.194200
     15 C11         -7.4770     5.8460     5.6160 c2         1 1XG      -0.155200
     16 C12         -8.4140     6.6940     4.7950 c3         1 1XG      -0.062900
     17 H1           1.6820     0.8890     0.3170 hn         1 1XG       0.479800
     18 H2           1.6820    -0.1690    -0.9280 hn         1 1XG       0.479800
     19 H3          -0.4910     0.8840     1.8730 hc         1 1XG       0.107200
     20 H4          -0.4920    -0.8850     1.8730 hc         1 1XG       0.107200
     21 H5          -2.5050     0.8370     0.3830 h1         1 1XG       0.067700
     22 H6          -3.3950    -1.0810    -0.1430 ho         1 1XG       0.439000
     23 H7          -2.1920     1.8830     3.2010 hc         1 1XG       0.065200
     24 H8          -3.6960     2.1400     2.3050 hc         1 1XG       0.065200
     25 H9          -3.4420     0.6540     4.9460 hc         1 1XG       0.064200
     26 H10         -4.9450     0.9110     4.0500 hc         1 1XG       0.064200
     27 H11         -3.2530     3.2700     5.1500 ha         1 1XG       0.123000
     28 H12         -6.1960     2.5160     5.0020 ha         1 1XG       0.133000
     29 H13         -5.8880     4.3380     6.8740 hc         1 1XG       0.056200
     30 H14         -4.5160     4.9510     5.9410 hc         1 1XG       0.056200
     31 H15         -6.2180     5.4800     4.0060 ha         1 1XG       0.123000
     32 H16         -7.6780     5.6790     6.6670 ha         1 1XG       0.127000
     33 H17         -7.8700     7.5310     4.3740 hc         1 1XG       0.044367
     34 H18         -8.8340     6.0970     3.9940 hc         1 1XG       0.044367
     35 H19         -9.2130     7.0640     5.4260 hc         1 1XG       0.044367
     36 H131         1.6820    -0.7210     0.6090 hn         1 1XG       0.479800
@<TRIPOS>BOND
     1     5     1 2   
     2     2     1 1   
     3     1     4 1   
     4     4     6 1   
     5     7     6 1   
     6     6     8 1   
     7     8     9 1   
     8     8     3 2   
     9     9    10 1   
    10    10    11 1   
    11    12    11 2   
    12    12    13 1   
    13    13    14 1   
    14    14    15 2   
    15    15    16 1   
    16     2    17 1   
    17     2    18 1   
    18     4    19 1   
    19     4    20 1   
    20     6    21 1   
    21     7    22 1   
    22     9    23 1   
    23     9    24 1   
    24    10    25 1   
    25    10    26 1   
    26    11    27 1   
    27    12    28 1   
    28    13    29 1   
    29    13    30 1   
    30    14    31 1   
    31    15    32 1   
    32    16    33 1   
    33    16    34 1   
    34    16    35 1   
    35    36     2 1   
@<TRIPOS>SUBSTRUCTURE
     1 1XG         1 TEMP              0 ****  ****    0 ROOT
