@<TRIPOS>MOLECULE
1XH
   51    53     1     0     0
SMALL
bcc


@<TRIPOS>ATOM
      1 CAA          1.0180     0.0860     0.4890 c2         1 1XH      -0.231000
      2 CAB          1.6310     5.8300    -2.6390 c3         1 1XH      -0.094100
      3 CAC          0.9880     1.2470    -2.6270 c3         1 1XH      -0.087100
      4 CAD          3.3860     4.5760    -0.4430 c3         1 1XH      -0.089100
      5 CAG          8.0780     2.5620    -2.5040 cc         1 1XH      -0.182200
      6 CAH          7.7740     3.6310    -1.7600 cd         1 1XH      -0.187200
      7 CAI          5.7830     2.6260    -3.5080 cc         1 1XH      -0.205200
      8 CAJ          4.3150     0.3910    -0.6790 c3         1 1XH      -0.073400
      9 CAK          3.0200    -0.3770    -0.8660 c3         1 1XH      -0.045200
     10 CAL          4.0560     1.8800    -0.5760 c3         1 1XH      -0.072400
     11 CAM          0.5810     4.0290    -1.3060 c3         1 1XH      -0.069400
     12 CAN          0.7400     2.6940    -0.6130 c3         1 1XH      -0.067400
     13 CAO          4.1070     4.3170    -2.8160 c3         1 1XH      -0.053200
     14 CAP          1.8430     0.4630    -0.4910 c2         1 1XH      -0.100400
     15 CAQ          5.4540     3.6880    -2.7490 cd         1 1XH      -0.107400
     16 CAR          7.1220     2.0070    -3.4860 c          1 1XH       0.541500
     17 CAS          6.4790     4.3370    -1.8850 c          1 1XH       0.543500
     18 CAT          1.6940     4.3560    -2.2870 c3         1 1XH      -0.059700
     19 CAU          3.0460     2.3460    -1.6210 c3         1 1XH      -0.042700
     20 CAV          1.6610     1.7120    -1.3310 c3         1 1XH       0.001200
     21 CAW          3.0640     3.8850    -1.7610 c3         1 1XH      -0.018000
     22 HAA          1.1810    -0.8420     1.0550 ha         1 1XH       0.112500
     23 HAAA         0.1370     0.6580     0.8010 ha         1 1XH       0.112500
     24 HAB          1.8950     6.4740    -1.7670 hc         1 1XH       0.036367
     25 HABA         2.3210     6.0710    -3.4820 hc         1 1XH       0.036367
     26 HABB         0.5910     6.0900    -2.9580 hc         1 1XH       0.036367
     27 HAC          0.1300     0.5740    -2.3830 hc         1 1XH       0.037033
     28 HACA         1.7080     0.6810    -3.2660 hc         1 1XH       0.037033
     29 HACB         0.5900     2.1090    -3.2110 hc         1 1XH       0.037033
     30 HAD          4.4440     4.3850    -0.1410 hc         1 1XH       0.041033
     31 HADA         2.7090     4.2180     0.3680 hc         1 1XH       0.041033
     32 HADB         3.2670     5.6820    -0.5420 hc         1 1XH       0.041033
     33 HAH          8.4770     4.0570    -1.0250 ha         1 1XH       0.160000
     34 HAI          5.0560     2.1550    -4.1920 ha         1 1XH       0.159000
     35 HAJ          5.0020     0.1810    -1.5400 hc         1 1XH       0.039700
     36 HAJA         4.8360     0.0450     0.2520 hc         1 1XH       0.039700
     37 HAK          2.9120    -0.6830    -1.9420 hc         1 1XH       0.047200
     38 HAKA         3.0450    -1.3190    -0.2580 hc         1 1XH       0.047200
     39 HAL          5.0270     2.4260    -0.7110 hc         1 1XH       0.043200
     40 HALA         3.6700     2.1240     0.4490 hc         1 1XH       0.043200
     41 HAM          0.5260     4.8360    -0.5270 hc         1 1XH       0.039700
     42 HAMA        -0.3930     4.0490    -1.8660 hc         1 1XH       0.039700
     43 HAN          1.1360     2.8520     0.4250 hc         1 1XH       0.043200
     44 HANA        -0.2770     2.2270    -0.5110 hc         1 1XH       0.043200
     45 HAO          3.6770     4.1120    -3.8360 hc         1 1XH       0.064200
     46 H26          4.2450     5.4310    -2.7180 hc         1 1XH       0.064200
     47 HAT          1.5090     3.7880    -3.2450 hc         1 1XH       0.045700
     48 HAU          3.3840     1.9310    -2.6170 hc         1 1XH       0.044700
     49 H12          9.0480     2.0440    -2.4290 ha         1 1XH       0.160000
     50 OAE          7.4250     1.0710    -4.2360 o          1 1XH      -0.497100
     51 OAF          6.2870     5.4190    -1.3190 o          1 1XH      -0.493100
@<TRIPOS>BOND
     1     1    14 2   
     2     1    22 1   
     3     1    23 1   
     4     2    18 1   
     5     2    24 1   
     6     2    25 1   
     7     2    26 1   
     8     3    20 1   
     9     3    27 1   
    10     3    28 1   
    11     3    29 1   
    12     4    21 1   
    13     4    30 1   
    14     4    31 1   
    15     4    32 1   
    16     5     6 2   
    17     5    16 1   
    18     5    49 1   
    19     6    17 1   
    20     6    33 1   
    21     7    15 2   
    22     7    16 1   
    23     7    34 1   
    24     8     9 1   
    25     8    10 1   
    26     8    35 1   
    27     8    36 1   
    28     9    14 1   
    29     9    37 1   
    30     9    38 1   
    31    10    19 1   
    32    10    39 1   
    33    10    40 1   
    34    11    12 1   
    35    11    18 1   
    36    11    41 1   
    37    11    42 1   
    38    12    20 1   
    39    12    43 1   
    40    12    44 1   
    41    13    15 1   
    42    13    21 1   
    43    13    45 1   
    44    13    46 1   
    45    14    20 1   
    46    15    17 1   
    47    16    50 2   
    48    17    51 2   
    49    18    21 1   
    50    18    47 1   
    51    19    20 1   
    52    19    21 1   
    53    19    48 1   
@<TRIPOS>SUBSTRUCTURE
     1 1XH         1 TEMP              0 ****  ****    0 ROOT
