@<TRIPOS>MOLECULE
molecule
   51    53     1     0     0
SMALL
bcc


@<TRIPOS>ATOM
      1 CAA          0.0000     0.0000     0.0000 c2         1 1XH      -0.233000
      2 CAB          3.9650     4.7320     0.1080 c3         1 1XH      -0.092100
      3 CAC          0.1750     2.1760    -1.4940 c3         1 1XH      -0.097100
      4 CAD          4.5530     3.4460    -2.1630 c3         1 1XH      -0.100100
      5 CAG          3.8090     0.9240    -6.2210 cc         1 1XH      -0.184200
      6 CAH          4.4580     2.0800    -6.0250 cd         1 1XH      -0.189200
      7 CAI          2.1480     1.5440    -4.3770 cc         1 1XH      -0.203200
      8 CAJ          3.5120     0.0000     0.0000 c3         1 1XH      -0.077400
      9 CAK          2.2790     0.0000     0.9090 c3         1 1XH      -0.040200
     10 CAL          3.8130     1.4500    -0.4020 c3         1 1XH      -0.078400
     11 CAM          1.4860     4.4220    -0.0680 c3         1 1XH      -0.074400
     12 CAN          1.3330     3.0390     0.5550 c3         1 1XH      -0.064400
     13 CAO          2.3130     3.6670    -3.1310 c3         1 1XH      -0.048200
     14 CAP          1.1520     0.6200     0.1190 c2         1 1XH      -0.115400
     15 CAQ          2.7960     2.7000    -4.1820 cd         1 1XH      -0.128400
     16 CAR          2.6210     0.5960    -5.4070 c          1 1XH       0.543500
     17 CAS          3.9850     3.0270    -4.9960 c          1 1XH       0.549500
     18 CAT          2.7830     4.5420    -0.8470 c3         1 1XH      -0.057700
     19 CAU          2.6940     2.0150    -1.2760 c3         1 1XH      -0.042700
     20 CAV          1.3610     1.9710    -0.5400 c3         1 1XH      -0.010800
     21 CAW          3.0490     3.3930    -1.8060 c3         1 1XH      -0.038000
     22 HAA         -0.1470    -0.9650     0.4710 ha         1 1XH       0.116500
     23 HAAA        -0.8030     0.4530    -0.5690 ha         1 1XH       0.116500
     24 HAB          3.6420     5.2950     0.9750 hc         1 1XH       0.037367
     25 HABA         4.3330     3.7630     0.4230 hc         1 1XH       0.037367
     26 HABB         4.7560     5.2710    -0.3990 hc         1 1XH       0.037367
     27 HAC         -0.7490     2.1700    -0.9280 hc         1 1XH       0.040700
     28 HACA         0.1560     1.3770    -2.2250 hc         1 1XH       0.040700
     29 HACB         0.2800     3.1270    -2.0020 hc         1 1XH       0.040700
     30 HAD          4.7680     4.3700    -2.6870 hc         1 1XH       0.043033
     31 HADA         5.1410     3.4000    -1.2550 hc         1 1XH       0.043033
     32 HADB         4.8030     2.6050    -2.7980 hc         1 1XH       0.043033
     33 HAH          5.3290     2.3200    -6.6220 ha         1 1XH       0.159000
     34 HAI          1.2380     1.3340    -3.8280 ha         1 1XH       0.166000
     35 HAJ          4.3590    -0.4120     0.5350 hc         1 1XH       0.044200
     36 HAJA         3.3110    -0.5900    -0.8860 hc         1 1XH       0.044200
     37 HAK          2.4750     0.5890     1.7960 hc         1 1XH       0.048700
     38 HAKA         2.0230    -1.0160     1.1820 hc         1 1XH       0.048700
     39 HAL          4.7440     1.4780    -0.9560 hc         1 1XH       0.047200
     40 HALA         3.9050     2.0540     0.4920 hc         1 1XH       0.047200
     41 HAM          0.6540     4.6000    -0.7380 hc         1 1XH       0.041700
     42 HAMA         1.4780     5.1660     0.7200 hc         1 1XH       0.041700
     43 HAN          0.3890     2.9870     1.0840 hc         1 1XH       0.046700
     44 HANA         2.1490     2.8650     1.2460 hc         1 1XH       0.046700
     45 HAO          2.5140     4.6810    -3.4540 hc         1 1XH       0.068200
     46 H26          1.2470     3.5390    -2.9860 hc         1 1XH       0.068200
     47 HAT          2.7060     5.4410    -1.4470 hc         1 1XH       0.044700
     48 HAU          2.6020     1.3610    -2.1350 hc         1 1XH       0.051700
     49 H12          4.1570     0.2290    -6.9770 ha         1 1XH       0.159000
     50 OAE          2.0340    -0.4520    -5.5850 o          1 1XH      -0.493100
     51 OAF          4.5720     4.0750    -4.8180 o          1 1XH      -0.495100
@<TRIPOS>BOND
     1     1    14 2   
     2     2    18 1   
     3     3    20 1   
     4     4    21 1   
     5    50    16 2   
     6    51    17 2   
     7     5     6 2   
     8     5    16 1   
     9     6    17 1   
    10     7    15 2   
    11     7    16 1   
    12     8     9 1   
    13     8    10 1   
    14     9    14 1   
    15    10    19 1   
    16    11    12 1   
    17    11    18 1   
    18    12    20 1   
    19    13    15 1   
    20    13    21 1   
    21    14    20 1   
    22    15    17 1   
    23    18    21 1   
    24    19    20 1   
    25    19    21 1   
    26     1    22 1   
    27     1    23 1   
    28     2    24 1   
    29     2    25 1   
    30     2    26 1   
    31     3    27 1   
    32     3    28 1   
    33     3    29 1   
    34     4    30 1   
    35     4    31 1   
    36     4    32 1   
    37     5    49 1   
    38     6    33 1   
    39     7    34 1   
    40     8    35 1   
    41     8    36 1   
    42     9    37 1   
    43     9    38 1   
    44    10    39 1   
    45    10    40 1   
    46    11    41 1   
    47    11    42 1   
    48    12    43 1   
    49    12    44 1   
    50    13    45 1   
    51    13    46 1   
    52    18    47 1   
    53    19    48 1   
@<TRIPOS>SUBSTRUCTURE
     1 1XH         1 TEMP              0 ****  ****    0 ROOT
