@<TRIPOS>MOLECULE
1XH
   51    49     1     0     0
SMALL
bcc


@<TRIPOS>ATOM
      1 CAA         0.8570   -1.0220   -0.2440 c1        1 1XH      0.204000
      2 CAB         3.8060    4.0610    0.9490 c3        1 1XH     -0.214000
      3 CAC         0.4070    2.0700   -1.3690 c3        1 1XH     -0.223000
      4 CAD         4.6660    2.7610   -1.9670 c3        1 1XH     -0.220000
      5 CAG         3.2330    0.6370   -6.1340 c2        1 1XH     -0.551000
      6 CAH         3.3630    0.8650   -7.4240 c1        1 1XH      0.282000
      7 CAI         2.0780    2.6710   -5.6080 c1        1 1XH     -0.094000
      8 CAJ         4.2460   -0.3230   -0.0530 c3        1 1XH     -0.215000
      9 CAK         0.6140    0.8490    1.5350 cv        1 1XH     -0.075000
     10 CAL         3.7630    1.0600    0.3170 c3        1 1XH     -0.157000
     11 CAM         2.0330    5.0040   -0.5200 c3        1 1XH     -0.214000
     12 CAN         0.9890    2.0830    1.1120 cv        1 1XH     -0.175000
     13 CAO         1.5220    4.3800   -4.0090 c1        1 1XH      0.063000
     14 CAP         0.9280    0.1930    0.2400 cv        1 1XH     -0.452000
     15 CAQ         2.5050    3.9000   -4.9990 c3        1 1XH     -0.287000
     16 CAR         2.2980    1.3160   -5.2170 c2        1 1XH      0.286000
     17 CAS         2.7290    4.9840   -6.0520 c2        1 1XH      0.246000
     18 CAT         3.3460    4.2470   -0.4790 c3        1 1XH     -0.099000
     19 CAU         2.8200    1.6350   -0.7360 c3        1 1XH     -0.083000
     20 CAV         1.3610    1.6000   -0.3010 cy        1 1XH      0.070000
     21 CAW         3.2990    2.9700   -1.3260 c3        1 1XH     -0.077000
     22 HAA         1.7570   -0.8670   -2.3250 ha        1 1XH      0.014000
     23 HAAA        1.1150   -0.6990   -2.4780 ha        1 1XH      0.014000
     24 HAB         3.7340    5.0320    1.4990 hc        1 1XH      0.077667
     25 HABA        3.1780    3.3070    1.4820 hc        1 1XH      0.077667
     26 HABB        4.8710    3.7250    0.9770 hc        1 1XH      0.077667
     27 HAC         0.4810    3.1760   -1.5030 hc        1 1XH      0.089667
     28 HACA       -0.6450    1.8250   -1.0820 hc        1 1XH      0.089667
     29 HACB        0.6350    1.5650   -2.3420 hc        1 1XH      0.089667
     30 HAD         4.7070    1.7880   -2.5130 hc        1 1XH      0.075667
     31 HADA        5.4710    2.7630   -1.1930 hc        1 1XH      0.075667
     32 HADB        4.8830    3.5850   -2.6900 hc        1 1XH      0.075667
     33 HAH         1.8840    5.1230   -6.7550 h4        1 1XH      0.133000
     34 HAI         3.4580    3.8150   -4.3650 hc        1 1XH      0.190000
     35 HAJ         4.8460   -0.2910   -0.9950 hc        1 1XH      0.074667
     36 HAJA        3.3800   -1.0150   -0.2080 hc        1 1XH      0.074667
     37 HAK         0.2210    0.4110    2.4420 ha        1 1XH      0.160000
     38 HAKA        4.8880   -0.7360    0.7610 hc        1 1XH      0.074667
     39 HAL         3.2450    1.0150    1.3120 hc        1 1XH      0.087500
     40 HALA        4.6570    1.7240    0.4440 hc        1 1XH      0.087500
     41 HAM         1.2300    4.4510    0.0210 hc        1 1XH      0.077667
     42 HAMA        1.0210    3.0730    1.5430 ha        1 1XH      0.161000
     43 HAN         1.7070    5.1660   -1.5790 hc        1 1XH      0.077667
     44 HANA        2.1560    6.0040   -0.0360 hc        1 1XH      0.077667
     45 HAO         0.7830    3.6380   -3.6560 ha        1 1XH      0.068000
     46 H26         2.5790    3.1920   -2.1750 hc        1 1XH      0.049000
     47 HAT         4.1090    4.9220   -0.9770 hc        1 1XH      0.083000
     48 HAU         2.8450    0.9240   -1.6260 hc        1 1XH      0.096000
     49 H12         3.8210   -0.1730   -5.6500 ha        1 1XH      0.225000
     50 OAE         1.6890    0.7240   -4.3100 o         1 1XH     -0.314000
     51 OAF         3.7770    5.6160   -6.0960 o         1 1XH     -0.253000
@<TRIPOS>BOND
     1    1   14 1   
     2    2   18 1   
     3    2   24 1   
     4    2   25 1   
     5    2   26 1   
     6    3   20 1   
     7    3   27 1   
     8    3   28 1   
     9    3   29 1   
    10    4   21 1   
    11    4   30 1   
    12    4   31 1   
    13    4   32 1   
    14    5    6 1   
    15    5   16 1   
    16    5   49 1   
    17    7   15 1   
    18    7   16 1   
    19    8   10 1   
    20    8   35 1   
    21    8   36 1   
    22    8   38 1   
    23    9   12 1   
    24    9   14 1   
    25    9   37 1   
    26   10   19 1   
    27   10   39 1   
    28   10   40 1   
    29   11   18 1   
    30   11   41 1   
    31   11   43 1   
    32   11   44 1   
    33   12   20 1   
    34   12   42 1   
    35   13   15 1   
    36   13   45 1   
    37   14   20 1   
    38   15   17 1   
    39   15   34 1   
    40   16   50 1   
    41   17   33 1   
    42   17   51 1   
    43   18   21 1   
    44   18   47 1   
    45   19   20 1   
    46   19   21 1   
    47   19   48 1   
    48   21   46 1   
    49   22   23 1   
@<TRIPOS>SUBSTRUCTURE
     1 1XH         1 TEMP              0 ****  ****    0 ROOT
