@<TRIPOS>MOLECULE
molecule
   39    40     1     0     0
SMALL
bcc


@<TRIPOS>ATOM
      1 OAD          0.0000     0.0000     0.0000 oh         1 1XL      -0.612800
      2 CAJ          1.4290     0.0000     0.0000 c3         1 1XL       0.111400
      3 CAT          1.9390     0.0000     1.4420 c3         1 1XL       0.134100
      4 OAE          1.5610    -1.2200     2.0810 oh         1 1XL      -0.620800
      5 CAV          3.4640     0.1250     1.4440 c3         1 1XL       0.143100
      6 OAG          3.8430     1.3460     0.8050 oh         1 1XL      -0.575800
      7 CAU          3.9750     0.1260     2.8870 c3         1 1XL       0.131100
      8 OAF          3.3170     1.1580     3.6240 oh         1 1XL      -0.557800
      9 CAK          5.4840     0.3760     2.8940 c3         1 1XL       0.016300
     10 N8           5.9920     0.2570     4.2630 na         1 1XL      -0.037100
     11 C7           6.4180    -0.9310     4.7370 cc         1 1XL      -0.098600
     12 C8A          6.0470     1.3480     5.0790 cd         1 1XL       0.062400
     13 N1           5.6480     2.5460     4.6740 nc         1 1XL      -0.441400
     14 C2           5.7020     3.6080     5.4710 c          1 1XL       0.856900
     15 O2           5.3190     4.6800     5.0360 o          1 1XL      -0.605500
     16 N3           6.1580     3.5570     6.7330 ns         1 1XL      -0.591500
     17 C4           6.5940     2.3910     7.2620 c          1 1XL       0.615000
     18 O4           7.0100     2.3300     8.4050 o          1 1XL      -0.575500
     19 C4A          6.5470     1.1940     6.4000 cd         1 1XL       0.267800
     20 N5           6.9480     0.0110     6.8260 nc         1 1XL      -0.514000
     21 C6           6.8960    -1.0390     6.0240 cc         1 1XL       0.296600
     22 CAI          7.3660    -2.3790     6.5300 c3         1 1XL       0.118100
     23 OAC          8.7690    -2.3220     6.7950 oh         1 1XL      -0.591800
     24 H1          -0.3140     0.0300    -0.8880 ho         1 1XL       0.410000
     25 H2           1.7900    -0.8850    -0.5110 h1         1 1XL       0.032200
     26 H3           1.7910     0.8840    -0.5110 h1         1 1XL       0.032200
     27 H4           1.5080     0.8370     1.9780 h1         1 1XL       0.078700
     28 H5           0.6710    -1.1520     2.3870 ho         1 1XL       0.425000
     29 H6           3.8960    -0.7120     0.9090 h1         1 1XL       0.041700
     30 H7           4.2730     1.1530    -0.0120 ho         1 1XL       0.401000
     31 H8           3.7650    -0.8340     3.3440 h1         1 1XL       0.050700
     32 H9           2.7800     0.7710     4.2950 ho         1 1XL       0.401000
     33 H10          5.9740    -0.3560     2.2630 h1         1 1XL       0.096700
     34 H11          5.6870     1.3710     2.5190 h1         1 1XL       0.096700
     35 H12          6.3850    -1.8070     4.1000 h4         1 1XL       0.173000
     36 H14          6.1750     4.3900     7.2870 hn         1 1XL       0.354500
     37 H15          7.1710    -3.1370     5.7810 h1         1 1XL       0.034700
     38 H16          6.8360    -2.6270     7.4420 h1         1 1XL       0.034700
     39 H17          9.0600    -3.1560     7.1260 ho         1 1XL       0.409000
@<TRIPOS>BOND
     1    15    14 2   
     2    14    16 1   
     3    14    13 1   
     4    16    17 1   
     5    13    12 2   
     6    17    18 2   
     7    17    19 1   
     8    12    19 1   
     9    12    10 1   
    10     9    10 1   
    11     9     7 1   
    12    19    20 2   
    13    10    11 1   
    14    20    21 1   
    15     8     7 1   
    16     6     5 1   
    17    11    21 2   
    18    21    22 1   
    19     7     5 1   
    20    23    22 1   
    21     5     3 1   
    22     4     3 1   
    23     3     2 1   
    24     2     1 1   
    25     1    24 1   
    26     2    25 1   
    27     2    26 1   
    28     3    27 1   
    29     4    28 1   
    30     5    29 1   
    31     6    30 1   
    32     7    31 1   
    33     8    32 1   
    34     9    33 1   
    35     9    34 1   
    36    11    35 1   
    37    16    36 1   
    38    22    37 1   
    39    22    38 1   
    40    23    39 1   
@<TRIPOS>SUBSTRUCTURE
     1 1XL         1 TEMP              0 ****  ****    0 ROOT
