@<TRIPOS>MOLECULE
1XL
   39    40     1     0     0
SMALL
bcc


@<TRIPOS>ATOM
      1 OAD          0.7660    -1.5590    -0.5150 oh         1 1XL      -0.610800
      2 CAJ          2.0970    -1.1170    -0.2980 c3         1 1XL       0.092400
      3 CAT          2.0720    -0.3700     1.0400 c3         1 1XL       0.111100
      4 OAE          1.6240    -1.2210     2.0830 oh         1 1XL      -0.624800
      5 CAV          3.4720     0.1420     1.4210 c3         1 1XL       0.111100
      6 OAG          3.3630     1.1790     2.3760 oh         1 1XL      -0.599800
      7 CAU          4.3940    -0.9720     1.9460 c3         1 1XL       0.110100
      8 OAF          4.0320    -1.2970     3.2810 oh         1 1XL      -0.603800
      9 CAK          5.8560    -0.4910     2.0860 c3         1 1XL       0.020300
     10 N8           6.4770    -0.0380     0.8530 na         1 1XL      -0.081100
     11 C7           6.5950     1.3100     0.6060 cc         1 1XL      -0.073600
     12 C8A          6.9700    -0.9540    -0.1020 cc         1 1XL       0.064400
     13 N1           6.7840    -2.2530     0.0620 nd         1 1XL      -0.418400
     14 C2           7.3110    -3.1470    -0.9030 c          1 1XL       0.847900
     15 O2           7.1450    -4.3760    -0.8070 o          1 1XL      -0.583500
     16 N3           8.0430    -2.6590    -2.0150 ns         1 1XL      -0.614500
     17 C4           8.2750    -1.3090    -2.2540 c          1 1XL       0.612000
     18 O4           8.9410    -0.9560    -3.2380 o          1 1XL      -0.571500
     19 C4A          7.6760    -0.3410    -1.2700 cc         1 1XL       0.279800
     20 N5           7.7890     0.9550    -1.4690 nd         1 1XL      -0.516000
     21 C6           7.2280     1.7980    -0.5320 cd         1 1XL       0.225600
     22 CAI          7.3230     3.2870    -0.7570 c3         1 1XL       0.108100
     23 OAC          8.6500     3.7530    -0.6830 oh         1 1XL      -0.587800
     24 H1           0.7790    -2.1060    -1.3090 ho         1 1XL       0.416000
     25 H2           2.7930    -1.9950    -0.2520 h1         1 1XL       0.039700
     26 H3           2.4140    -0.4250    -1.1220 h1         1 1XL       0.039700
     27 H4           1.3730     0.5110     0.9620 h1         1 1XL       0.070700
     28 H5           0.7810    -1.5980     1.7960 ho         1 1XL       0.436000
     29 H6           3.9170     0.6380     0.5130 h1         1 1XL       0.073700
     30 H7           3.0580     0.7710     3.2000 ho         1 1XL       0.430000
     31 H8           4.3270    -1.8750     1.2820 h1         1 1XL       0.077700
     32 H9           3.2520    -1.8670     3.2350 ho         1 1XL       0.439000
     33 H10          6.4610    -1.3430     2.5110 h1         1 1XL       0.097700
     34 H11          5.8660     0.3600     2.8270 h1         1 1XL       0.097700
     35 H12          6.1590     1.9880     1.3670 h4         1 1XL       0.193000
     36 H14          8.4250    -3.3270    -2.6520 hn         1 1XL       0.349500
     37 H15          6.8660     3.5470    -1.7510 h1         1 1XL       0.061200
     38 H16          6.7820     3.8350     0.0630 h1         1 1XL       0.061200
     39 H17          9.1460     3.3550    -1.4110 ho         1 1XL       0.419000
@<TRIPOS>BOND
     1     1     2 1   
     2     1    24 1   
     3     2     3 1   
     4     2    25 1   
     5     2    26 1   
     6     3     4 1   
     7     3     5 1   
     8     3    27 1   
     9     4    28 1   
    10     5     6 1   
    11     5     7 1   
    12     5    29 1   
    13     6    30 1   
    14     7     8 1   
    15     7     9 1   
    16     7    31 1   
    17     8    32 1   
    18     9    10 1   
    19     9    33 1   
    20     9    34 1   
    21    10    11 1   
    22    10    12 1   
    23    11    21 2   
    24    11    35 1   
    25    12    13 2   
    26    12    19 1   
    27    13    14 1   
    28    14    15 2   
    29    14    16 1   
    30    16    17 1   
    31    16    36 1   
    32    17    18 2   
    33    17    19 1   
    34    19    20 2   
    35    20    21 1   
    36    21    22 1   
    37    22    23 1   
    38    22    37 1   
    39    22    38 1   
    40    23    39 1   
@<TRIPOS>SUBSTRUCTURE
     1 1XL         1 TEMP              0 ****  ****    0 ROOT
