@<TRIPOS>MOLECULE
1XM
   17    18     1     0     0
SMALL
bcc


@<TRIPOS>ATOM
      1 N1          -0.0670     0.0170     0.0930 nz         1 1XM      -0.797600
      2 C2           1.4180     0.0040     0.0660 cc         1 1XM       0.638800
      3 N3           2.0600    -0.0150     1.2180 nd         1 1XM      -0.592100
      4 C4           3.4770    -0.0280     1.2590 cs         1 1XM       0.492800
      5 S5           4.2540    -0.0500     2.6140 s          1 1XM      -0.154400
      6 N6           4.2010    -0.0210     0.0210 ns         1 1XM      -0.403100
      7 C7           3.5120    -0.0010    -1.1600 cd         1 1XM       0.135300
      8 N8           3.9300     0.0100    -2.4890 na         1 1XM      -0.019600
      9 N9           2.8800     0.0290    -3.3340 nd         1 1XM      -0.429800
     10 C10          1.7410     0.0310    -2.6150 cc         1 1XM       0.367200
     11 C11          2.0540     0.0130    -1.2030 cc         1 1XM      -0.483200
     12 H1          -0.3940     0.8670    -0.3810 hn         1 1XM       0.480133
     13 H2          -0.4090    -0.8120    -0.4070 hn         1 1XM       0.480133
     14 H3           5.2020    -0.0300     0.0650 hn         1 1XM       0.379500
     15 H4           4.8630     0.0060    -2.8450 hn         1 1XM       0.363700
     16 H5           0.7600     0.0450    -3.0960 h4         1 1XM       0.064100
     17 H13         -0.4240     0.0050     1.0600 hn         1 1XM       0.480133
@<TRIPOS>BOND
     1     1     2 1   
     2     1    12 1   
     3     1    13 1   
     4     1    17 1   
     5     2     3 2   
     6     2    11 1   
     7     3     4 1   
     8     4     5 2   
     9     4     6 1   
    10     6     7 1   
    11     6    14 1   
    12     7     8 1   
    13     7    11 2   
    14     8     9 1   
    15     8    15 1   
    16     9    10 2   
    17    10    11 1   
    18    10    16 1   
@<TRIPOS>SUBSTRUCTURE
     1 1XM         1 TEMP              0 ****  ****    0 ROOT
