@<TRIPOS>MOLECULE
1XM
   17    18     1     0     0
SMALL
bcc


@<TRIPOS>ATOM
      1 N1           0.0000     0.0000     0.0000 nz         1 1XM       0.214400
      2 C2           1.3730     0.0000     0.0000 cc         1 1XM       0.259800
      3 N3           2.0510     0.0000     1.1410 nd         1 1XM      -0.362100
      4 C4           3.3820    -0.0010     1.1580 cs         1 1XM       0.318800
      5 S5           4.1840     0.0000     2.6710 s          1 1XM      -0.381400
      6 N6           4.1210    -0.0030     0.0350 ns         1 1XM       0.198900
      7 C7           3.5170    -0.0040    -1.1970 cd         1 1XM      -0.238700
      8 N8           3.9650    -0.0060    -2.4670 na         1 1XM       0.508400
      9 N9           2.8600    -0.0050    -3.3270 nd         1 1XM      -0.552800
     10 C10          1.7620    -0.0040    -2.6200 cc         1 1XM       0.449200
     11 C11          2.1210    -0.0080    -1.2560 cc         1 1XM      -0.478200
     12 H1          -0.3340     0.0030     0.9440 hn         1 1XM       0.221133
     13 H2          -0.3340    -0.8180    -0.4700 hn         1 1XM       0.221133
     14 H3           5.1200    -0.0040     0.0980 hn         1 1XM       0.208500
     15 H4           4.9250    -0.0070    -2.7490 hn         1 1XM       0.176700
     16 H5           0.7520    -0.0030    -3.0130 h4         1 1XM       0.014100
     17 H13         -0.3340     0.8160    -0.4740 hn         1 1XM       0.221133
@<TRIPOS>BOND
     1     1     2 1   
     2     1    12 1   
     3     1    13 1   
     4     1    17 1   
     5     2     3 2   
     6     2    11 1   
     7     3     4 1   
     8     4     5 2   
     9     4     6 1   
    10     6     7 1   
    11     6    14 1   
    12     7     8 1   
    13     7    11 2   
    14     8     9 1   
    15     8    15 1   
    16     9    10 2   
    17    10    11 1   
    18    10    16 1   
@<TRIPOS>SUBSTRUCTURE
     1 1XM         1 TEMP              0 ****  ****    0 ROOT
