@<TRIPOS>MOLECULE
1XN
   20    21     1     0     0
SMALL
bcc


@<TRIPOS>ATOM
      1 N1           0.0000     0.0000     0.0000 nv         1 1XN      -0.458100
      2 C2           1.3980     0.0000     0.0000 cc         1 1XN      -0.231100
      3 N3           2.1960     0.0000     1.1080 na         1 1XN       0.423500
      4 C4           3.5140     0.0010     0.7530 cc         1 1XN      -0.231100
      5 N5           4.5970     0.0000     1.6380 nv         1 1XN      -0.458100
      6 C6           3.5990    -0.0010    -0.6230 ca         1 1XN      -0.110000
      7 C7           4.6510    -0.0020    -1.5640 ca         1 1XN      -0.052500
      8 C8           4.3630    -0.0040    -2.8890 ca         1 1XN      -0.121500
      9 C9           3.0420    -0.0040    -3.3590 ca         1 1XN      -0.121500
     10 C10          1.9820    -0.0020    -2.5150 ca         1 1XN      -0.052500
     11 C11          2.2030    -0.0070    -1.1200 ca         1 1XN      -0.110000
     12 H1          -0.5000    -0.0380    -0.8660 hn         1 1XN       0.262550
     13 H2          -0.5000     0.0430     0.8660 hn         1 1XN       0.262550
     14 H3           1.8600    -0.0010     2.0510 hn         1 1XN       0.099700
     15 H4           4.8670    -0.8470     2.0970 hn         1 1XN       0.262550
     16 H5           5.0840     0.8530     1.8330 hn         1 1XN       0.262550
     17 H6           5.6820    -0.0020    -1.2300 ha         1 1XN       0.092500
     18 H7           5.1760    -0.0050    -3.6040 ha         1 1XN       0.094000
     19 H8           2.8640    -0.0050    -4.4280 ha         1 1XN       0.094000
     20 H9           0.9720    -0.0030    -2.9070 ha         1 1XN       0.092500
@<TRIPOS>BOND
     1     1     2 1   
     2     1    12 1   
     3     1    13 1   
     4     2     3 1   
     5     2    11 2   
     6     3     4 1   
     7     3    14 1   
     8     4     5 1   
     9     4     6 2   
    10     5    15 1   
    11     5    16 1   
    12     6     7 ar  
    13     6    11 ar  
    14     7     8 ar  
    15     7    17 1   
    16     8     9 ar  
    17     8    18 1   
    18     9    10 ar  
    19     9    19 1   
    20    10    11 ar  
    21    10    20 1   
@<TRIPOS>SUBSTRUCTURE
     1 1XN         1 TEMP              0 ****  ****    0 ROOT
