@<TRIPOS>MOLECULE
1XN
   20    21     1     0     0
SMALL
bcc


@<TRIPOS>ATOM
      1 N1          -0.1860    -0.2120     0.0770 nv         1 1XN      -0.774600
      2 C2           1.2180    -0.0910     0.0510 cc         1 1XN       0.014900
      3 N3           1.9960    -0.1650     1.2120 na         1 1XN      -0.101500
      4 C4           3.3540    -0.1130     0.8790 cc         1 1XN       0.014900
      5 N5           4.3670    -0.0770     1.8590 nv         1 1XN      -0.774600
      6 C6           3.4530    -0.0040    -0.5370 ca         1 1XN      -0.106000
      7 C7           4.5510     0.0880    -1.4220 ca         1 1XN      -0.095000
      8 C8           4.3080     0.1870    -2.7670 ca         1 1XN      -0.137500
      9 C9           2.9780     0.2000    -3.2830 ca         1 1XN      -0.137500
     10 C10          1.8900     0.1150    -2.4550 ca         1 1XN      -0.095000
     11 C11          2.1020     0.0140    -1.0600 ca         1 1XN      -0.106000
     12 H1          -0.5080    -0.5530    -0.8070 hn         1 1XN       0.373800
     13 H2          -0.6160     0.6700     0.2860 hn         1 1XN       0.373800
     14 H3           1.6390    -0.2430     2.1310 hn         1 1XN       0.305700
     15 H4           4.5970    -1.0040     2.1690 hn         1 1XN       0.373800
     16 H5           5.1780     0.3730     1.4830 hn         1 1XN       0.373800
     17 H6           5.5750     0.0780    -1.0230 ha         1 1XN       0.121000
     18 H7           5.1420     0.2580    -3.4810 ha         1 1XN       0.126000
     19 H8           2.8450     0.2820    -4.3720 ha         1 1XN       0.126000
     20 H9           0.8650     0.1240    -2.8500 ha         1 1XN       0.121000
@<TRIPOS>BOND
     1     1     2 1   
     2     1    12 1   
     3     1    13 1   
     4     2     3 1   
     5     2    11 2   
     6     3     4 1   
     7     3    14 1   
     8     4     5 1   
     9     4     6 2   
    10     5    15 1   
    11     5    16 1   
    12     6     7 ar  
    13     6    11 ar  
    14     7     8 ar  
    15     7    17 1   
    16     8     9 ar  
    17     8    18 1   
    18     9    10 ar  
    19     9    19 1   
    20    10    11 ar  
    21    10    20 1   
@<TRIPOS>SUBSTRUCTURE
     1 1XN         1 TEMP              0 ****  ****    0 ROOT
