@<TRIPOS>MOLECULE
1XO
   51    54     1     0     0
SMALL
bcc


@<TRIPOS>ATOM
      1 S1           0.1680    -1.5830     0.8760 ss         1 1XO       0.117200
      2 C2           0.9660    -0.2750     0.1910 cc         1 1XO      -0.271400
      3 C3           0.2540     0.9030     0.3970 cd         1 1XO      -0.098000
      4 C5          -0.9520     0.6690     1.1130 cd         1 1XO      -0.151000
      5 C7          -1.0980    -0.6700     1.4300 cc         1 1XO      -0.129100
      6 C9           2.2920    -0.3800    -0.4270 c3         1 1XO       0.228100
      7 N12          2.3400    -0.0590    -1.9030 nx         1 1XO      -0.595200
      8 C13          1.2780    -0.7800    -2.6580 c3         1 1XO       0.072500
      9 C16          1.4860    -0.7740    -4.1780 cc         1 1XO       0.457900
     10 N17          2.5010    -0.1050    -4.6890 nd         1 1XO      -0.661100
     11 C18          2.6630    -0.1100    -6.0830 ca         1 1XO       0.164400
     12 C19          1.7580    -0.8130    -6.9250 ca         1 1XO      -0.170600
     13 C20          1.9260    -0.8100    -8.3140 ca         1 1XO      -0.053000
     14 C22          2.9900    -0.1150    -8.8770 ca         1 1XO      -0.124000
     15 C24          3.8870     0.5800    -8.0590 ca         1 1XO      -0.083000
     16 C26          3.7370     0.5900    -6.6780 ca         1 1XO      -0.115000
     17 C28          0.6310    -1.5460    -6.3200 c          1 1XO       0.715100
     18 N29          0.5470    -1.4960    -4.9070 ns         1 1XO      -0.492400
     19 O31         -0.2310    -2.1930    -6.9290 o          1 1XO      -0.570500
     20 C32          2.2890     1.4530    -2.1340 c          1 1XO       0.572100
     21 O33          1.2050     1.9290    -2.4260 o          1 1XO      -0.414100
     22 C34          3.5950     2.1780    -1.9630 c3         1 1XO      -0.150400
     23 C37          3.5990     3.0100    -0.6840 c3         1 1XO      -0.026100
     24 C40          3.2730     4.4400    -0.9350 ca         1 1XO      -0.127300
     25 C41          4.2900     5.4020    -0.9250 ca         1 1XO      -0.117500
     26 C43          3.9830     6.7460    -1.1350 ca         1 1XO      -0.119500
     27 C45          2.6620     7.1380    -1.3550 ca         1 1XO      -0.105000
     28 C47          1.6460     6.1810    -1.3650 ca         1 1XO      -0.119500
     29 C49          1.9490     4.8380    -1.1550 ca         1 1XO      -0.117500
     30 H1           0.5630     1.8960     0.0540 ha         1 1XO       0.162000
     31 H2          -1.6610     1.4590     1.3770 ha         1 1XO       0.183000
     32 H3          -1.9380    -1.0910     1.9880 h4         1 1XO       0.201000
     33 H4           3.0120     0.3400     0.0680 hx         1 1XO       0.101200
     34 H5           2.6950    -1.4300    -0.3110 hx         1 1XO       0.101200
     35 H6           1.2570    -1.8490    -2.2940 hx         1 1XO       0.124700
     36 H7           0.2870    -0.2860    -2.4220 hx         1 1XO       0.124700
     37 H8           1.2080    -1.3630    -8.9440 ha         1 1XO       0.173000
     38 H9           3.1260    -0.1100    -9.9710 ha         1 1XO       0.159000
     39 H10          4.7270     1.1280    -8.5170 ha         1 1XO       0.154000
     40 H11          4.4530     1.1420    -6.0500 ha         1 1XO       0.148000
     41 H12         -0.2120    -1.9540    -4.4520 hn         1 1XO       0.343500
     42 H13          4.4680     1.4740    -1.9630 hc         1 1XO       0.106700
     43 H14          3.7060     2.8500    -2.8630 hc         1 1XO       0.106700
     44 H15          2.8690     2.5870     0.0590 hc         1 1XO       0.064200
     45 H16          4.6220     2.9320    -0.2240 hc         1 1XO       0.064200
     46 H17          5.3330     5.1030    -0.7440 ha         1 1XO       0.130500
     47 H18          4.7860     7.4990    -1.1230 ha         1 1XO       0.147000
     48 H19          2.4210     8.1990    -1.5180 ha         1 1XO       0.149000
     49 H20          0.6030     6.4880    -1.5380 ha         1 1XO       0.147000
     50 H21          1.1460     4.0850    -1.1680 ha         1 1XO       0.130500
     51 H121         3.2570    -0.3780    -2.2510 hn         1 1XO       0.462800
@<TRIPOS>BOND
     1     1     2 1   
     2     1     5 1   
     3     2     3 2   
     4     2     6 1   
     5     3     4 1   
     6     3    30 1   
     7     4     5 2   
     8     4    31 1   
     9     5    32 1   
    10     6     7 1   
    11     6    33 1   
    12     6    34 1   
    13     7     8 1   
    14     7    20 1   
    15     7    51 1   
    16     8     9 1   
    17     8    35 1   
    18     8    36 1   
    19     9    10 2   
    20     9    18 1   
    21    10    11 1   
    22    11    12 ar  
    23    11    16 ar  
    24    12    13 ar  
    25    12    17 1   
    26    13    14 ar  
    27    13    37 1   
    28    14    15 ar  
    29    14    38 1   
    30    15    16 ar  
    31    15    39 1   
    32    16    40 1   
    33    17    18 1   
    34    17    19 2   
    35    18    41 1   
    36    20    21 2   
    37    20    22 1   
    38    22    23 1   
    39    22    42 1   
    40    22    43 1   
    41    23    24 1   
    42    23    44 1   
    43    23    45 1   
    44    24    25 ar  
    45    24    29 ar  
    46    25    26 ar  
    47    25    46 1   
    48    26    27 ar  
    49    26    47 1   
    50    27    28 ar  
    51    27    48 1   
    52    28    29 ar  
    53    28    49 1   
    54    29    50 1   
@<TRIPOS>SUBSTRUCTURE
     1 1XO         1 TEMP              0 ****  ****    0 ROOT
