@<TRIPOS>MOLECULE
1XO
   50    53     1     0     0
SMALL
bcc


@<TRIPOS>ATOM
      1 S1           0.0000     0.0000     0.0000 ss         1 1XO      -0.271800
      2 C2           1.7590     0.0000     0.0000 cc         1 1XO      -0.006400
      3 C3           2.2060     0.0000     1.2580 cd         1 1XO      -0.104000
      4 C5           1.2190    -0.0010     2.2280 cd         1 1XO      -0.121000
      5 C7          -0.0300    -0.0020     1.7590 cc         1 1XO       0.007900
      6 C9           2.6280     0.0000    -1.2310 c3         1 1XO       0.144300
      7 N12          2.9100    -1.3810    -1.6300 n          1 1XO      -0.130800
      8 C13          4.0870    -2.0720    -1.0980 c3         1 1XO       0.026700
      9 C16          3.7180    -2.7820     0.1790 cc         1 1XO       0.260900
     10 N17          2.4930    -2.6960     0.6000 nd         1 1XO      -0.524100
     11 C18          2.0870    -3.3090     1.7410 ca         1 1XO       0.155400
     12 C19          3.0250    -4.0580     2.4850 ca         1 1XO      -0.213600
     13 C20          2.6330    -4.6970     3.6600 ca         1 1XO      -0.016000
     14 C22          1.3270    -4.5910     4.0860 ca         1 1XO      -0.128000
     15 C24          0.4030    -3.8560     3.3570 ca         1 1XO      -0.065000
     16 C26          0.7700    -3.2160     2.1940 ca         1 1XO      -0.105000
     17 C28          4.4040    -4.1360     1.9810 c          1 1XO       0.618100
     18 N29          4.6830    -3.4850     0.8280 ns         1 1XO      -0.002400
     19 O31          5.2600    -4.7650     2.5760 o          1 1XO      -0.663500
     20 C32          2.0860    -2.0160    -2.4860 c          1 1XO       0.600100
     21 O33          2.3190    -3.1590    -2.8170 o          1 1XO      -0.643100
     22 C34          0.8750    -1.3050    -3.0340 c3         1 1XO      -0.117400
     23 C37          0.1160    -2.2420    -3.9760 c3         1 1XO       0.045900
     24 C40         -1.0950    -1.5320    -4.5230 ca         1 1XO      -0.094300
     25 C41         -0.9990    -0.8070    -5.6970 ca         1 1XO      -0.097500
     26 C43         -2.1100    -0.1560    -6.1990 ca         1 1XO      -0.099500
     27 C45         -3.3160    -0.2280    -5.5270 ca         1 1XO      -0.105000
     28 C47         -3.4120    -0.9530    -4.3540 ca         1 1XO      -0.099500
     29 C49         -2.3030    -1.6100    -3.8560 ca         1 1XO      -0.097500
     30 H1           3.2620     0.0000     1.5010 ha         1 1XO       0.116000
     31 H2           1.4430    -0.0010     3.2880 ha         1 1XO       0.122000
     32 H3          -0.9260    -0.0020     2.3680 h4         1 1XO       0.149000
     33 H4           2.1140     0.5110    -2.0360 h1         1 1XO       0.032700
     34 H5           3.5590     0.5110    -1.0160 h1         1 1XO       0.032700
     35 H6           4.4400    -2.7940    -1.8240 h1         1 1XO       0.042700
     36 H7           4.8690    -1.3500    -0.8960 h1         1 1XO       0.042700
     37 H8           3.3490    -5.2730     4.2340 ha         1 1XO       0.124000
     38 H9           1.0180    -5.0870     4.9990 ha         1 1XO       0.107000
     39 H10         -0.6200    -3.7840     3.7070 ha         1 1XO       0.102000
     40 H11          0.0400    -2.6450     1.6330 ha         1 1XO       0.127000
     41 H12          5.6080    -3.5220     0.4490 hn         1 1XO       0.180500
     42 H13          0.2280    -1.0120    -2.2170 hc         1 1XO       0.044700
     43 H14          1.1900    -0.4240    -3.5790 hc         1 1XO       0.044700
     44 H15         -0.1990    -3.1240    -3.4310 hc         1 1XO       0.033200
     45 H16          0.7630    -2.5350    -4.7940 hc         1 1XO       0.033200
     46 H17         -0.0540    -0.7500    -6.2230 ha         1 1XO       0.106000
     47 H18         -2.0350     0.4130    -7.1180 ha         1 1XO       0.101500
     48 H19         -4.1860     0.2840    -5.9190 ha         1 1XO       0.101000
     49 H20         -4.3580    -1.0130    -3.8300 ha         1 1XO       0.101500
     50 H21         -2.3780    -2.1780    -2.9370 ha         1 1XO       0.106000
@<TRIPOS>BOND
     1     1     2 1   
     2     1     5 1   
     3     2     3 2   
     4     2     6 1   
     5     3     4 1   
     6     3    30 1   
     7     4     5 2   
     8     4    31 1   
     9     5    32 1   
    10     6     7 1   
    11     6    33 1   
    12     6    34 1   
    13     7     8 1   
    14     7    20 1   
    15     8     9 1   
    16     8    35 1   
    17     8    36 1   
    18     9    10 2   
    19     9    18 1   
    20    10    11 1   
    21    11    12 ar  
    22    11    16 ar  
    23    12    13 ar  
    24    12    17 1   
    25    13    14 ar  
    26    13    37 1   
    27    14    15 ar  
    28    14    38 1   
    29    15    16 ar  
    30    15    39 1   
    31    16    40 1   
    32    17    18 1   
    33    17    19 2   
    34    18    41 1   
    35    20    21 2   
    36    20    22 1   
    37    22    23 1   
    38    22    42 1   
    39    22    43 1   
    40    23    24 1   
    41    23    44 1   
    42    23    45 1   
    43    24    25 ar  
    44    24    29 ar  
    45    25    26 ar  
    46    25    46 1   
    47    26    27 ar  
    48    26    47 1   
    49    27    28 ar  
    50    27    48 1   
    51    28    29 ar  
    52    28    49 1   
    53    29    50 1   
@<TRIPOS>SUBSTRUCTURE
     1 1XO         1 TEMP              0 ****  ****    0 ROOT
