@<TRIPOS>MOLECULE
1XP
   55    57     1     0     0
SMALL
bcc


@<TRIPOS>ATOM
      1 C1           0.0470     0.0850    -0.0620 ca         1 1XP      -0.255600
      2 C2          -0.3680    -1.2380     0.2290 ca         1 1XP       0.220100
      3 C3           0.8390     0.7640     0.8880 ca         1 1XP       0.019000
      4 C4          -0.2950     0.8600    -1.2530 c          1 1XP       0.578700
      5 C5           0.0100    -1.8520     1.4320 ca         1 1XP      -0.220000
      6 O1          -1.1410    -1.8720    -0.7090 os         1 1XP      -0.382900
      7 C6           1.2230     0.1540     2.0800 ca         1 1XP      -0.031000
      8 N1          -0.7800     0.1050    -2.4620 ny         1 1XP      -0.650800
      9 O2          -0.2050     2.0770    -1.3820 o          1 1XP      -0.443100
     10 C7           0.8030    -1.1680     2.3540 ca         1 1XP       0.138400
     11 C8          -1.6960    -3.1520    -0.3710 c3         1 1XP       0.107700
     12 C9           2.0270     0.8700     3.0050 cg         1 1XP       0.200800
     13 C10         -1.0840     0.9620    -3.6430 c3         1 1XP       0.100800
     14 Cl1          1.2480    -1.9310     3.7850 cl         1 1XP       0.014600
     15 N2           2.6870     1.4580     3.7610 n1         1 1XP      -0.277800
     16 C11         -1.4190     0.1390    -4.9130 c3         1 1XP       0.165800
     17 N3          -2.1960    -1.0350    -4.6010 n3         1 1XP      -0.806600
     18 C12         -1.8180    -2.2530    -5.3000 c3         1 1XP       0.178300
     19 C13         -3.6380    -0.8380    -4.5870 c3         1 1XP       0.178300
     20 C14         -2.4430    -3.4830    -4.6440 c3         1 1XP      -0.074900
     21 C15         -4.3520    -2.0010    -3.9010 c3         1 1XP      -0.074900
     22 C16         -3.9520    -3.3490    -4.4850 c3         1 1XP      -0.162700
     23 C17         -4.4450    -4.4430    -3.5500 c          1 1XP       0.598700
     24 C18         -5.5660    -5.2840    -3.9970 ca         1 1XP      -0.203600
     25 O3          -3.8930    -4.6090    -2.4520 o          1 1XP      -0.563100
     26 C19         -5.6530    -6.6010    -3.5190 ca         1 1XP      -0.055000
     27 C20         -6.5530    -4.8000    -4.8660 ca         1 1XP      -0.055000
     28 C21         -6.6910    -7.4340    -3.9180 ca         1 1XP      -0.176500
     29 C22         -7.6040    -5.6150    -5.2680 ca         1 1XP      -0.176500
     30 C23         -7.6730    -6.9420    -4.7990 ca         1 1XP       0.173900
     31 F1          -8.6880    -7.7420    -5.1930 f          1 1XP      -0.119900
     32 H1           1.1550     1.8040     0.6790 ha         1 1XP       0.185000
     33 H2          -0.3170    -2.8810     1.6580 ha         1 1XP       0.184000
     34 H3          -1.6340    -0.4160    -2.1970 hn         1 1XP       0.474300
     35 H4          -2.3370    -3.3930    -1.2630 h1         1 1XP       0.080367
     36 H5          -0.8770    -3.9010    -0.2520 h1         1 1XP       0.080367
     37 H6          -2.3140    -3.0730     0.5560 h1         1 1XP       0.080367
     38 H7          -0.1910     1.6160    -3.8530 hx         1 1XP       0.108700
     39 H8          -1.9510     1.6240    -3.3640 hx         1 1XP       0.108700
     40 H9          -0.4510    -0.1570    -5.4100 h1         1 1XP       0.075700
     41 H10         -1.9540     0.8530    -5.6070 h1         1 1XP       0.075700
     42 H12         -2.1280    -2.2150    -6.3860 h1         1 1XP       0.045450
     43 H13         -0.6970    -2.3580    -5.2680 h1         1 1XP       0.045450
     44 H14         -4.0460    -0.7190    -5.6330 h1         1 1XP       0.045450
     45 H15         -3.8620     0.1120    -4.0240 h1         1 1XP       0.045450
     46 H16         -2.2090    -4.3760    -5.2810 hc         1 1XP       0.061950
     47 H17         -1.9790    -3.6510    -3.6350 hc         1 1XP       0.061950
     48 H18         -5.4570    -1.8520    -4.0180 hc         1 1XP       0.061950
     49 H19         -4.1190    -1.9930    -2.8030 hc         1 1XP       0.061950
     50 H20         -4.4250    -3.4650    -5.4990 hc         1 1XP       0.078700
     51 H21         -4.8880    -6.9710    -2.8170 ha         1 1XP       0.146500
     52 H22         -6.5160    -3.7600    -5.2270 ha         1 1XP       0.146500
     53 H23         -6.7570    -8.4700    -3.5510 ha         1 1XP       0.163500
     54 H24         -8.3840    -5.2370    -5.9470 ha         1 1XP       0.163500
     55 H121        -0.0760    -0.5990    -2.7130 hn         1 1XP       0.474300
@<TRIPOS>BOND
     1     1     2 ar  
     2     1     3 ar  
     3     1     4 1   
     4     2     5 ar  
     5     2     6 1   
     6     3     7 ar  
     7     3    32 1   
     8     4     8 1   
     9     4     9 2   
    10     5    10 ar  
    11     5    33 1   
    12     6    11 1   
    13     7    10 ar  
    14     7    12 1   
    15     8    13 1   
    16     8    34 1   
    17     8    55 1   
    18    10    14 1   
    19    11    35 1   
    20    11    36 1   
    21    11    37 1   
    22    12    15 3   
    23    13    16 1   
    24    13    38 1   
    25    13    39 1   
    26    16    17 1   
    27    16    40 1   
    28    16    41 1   
    29    17    18 1   
    30    17    19 1   
    31    18    20 1   
    32    18    42 1   
    33    18    43 1   
    34    19    21 1   
    35    19    44 1   
    36    19    45 1   
    37    20    22 1   
    38    20    46 1   
    39    20    47 1   
    40    21    22 1   
    41    21    48 1   
    42    21    49 1   
    43    22    23 1   
    44    22    50 1   
    45    23    24 1   
    46    23    25 2   
    47    24    26 ar  
    48    24    27 ar  
    49    26    28 ar  
    50    26    51 1   
    51    27    29 ar  
    52    27    52 1   
    53    28    30 ar  
    54    28    53 1   
    55    29    30 ar  
    56    29    54 1   
    57    30    31 1   
@<TRIPOS>SUBSTRUCTURE
     1 1XP         1 TEMP              0 ****  ****    0 ROOT
