@<TRIPOS>MOLECULE
molecule
   54    56     1     0     0
SMALL
bcc


@<TRIPOS>ATOM
      1 C1           0.0000     0.0000     0.0000 ca         1 1XP      -0.182600
      2 C2           1.4040     0.0000     0.0000 ca         1 1XP       0.227100
      3 C3          -0.6910     0.0070     1.2090 ca         1 1XP      -0.026000
      4 C4          -0.7400    -0.0010    -1.2760 c          1 1XP       0.676700
      5 C5           2.0990     0.0000     1.2010 ca         1 1XP      -0.241000
      6 O1           2.0810    -0.0030    -1.1750 os         1 1XP      -0.268900
      7 C6           0.0150     0.0080     2.4100 ca         1 1XP      -0.066000
      8 N1          -2.0880     0.0050    -1.2730 ns         1 1XP      -0.549900
      9 O2          -0.1350    -0.0070    -2.3300 o          1 1XP      -0.580100
     10 C7           1.4160     0.0030     2.3990 ca         1 1XP       0.117400
     11 C8           3.5080    -0.0030    -1.1010 c3         1 1XP       0.114700
     12 C9          -0.6910     0.0150     3.6570 cg         1 1XP       0.240800
     13 C10         -2.8240     0.0050    -2.5400 c3         1 1XP      -0.206000
     14 Cl1          2.2940     0.0030     3.8960 cl         1 1XP      -0.075400
     15 N2          -1.2360     0.0080     4.6530 n1         1 1XP      -0.352800
     16 C11         -4.3270     0.0120    -2.2570 c3         1 1XP       0.296800
     17 N3          -5.0650     0.0120    -3.5280 n3         1 1XP      -0.737600
     18 C12         -6.4950     0.2570    -3.3060 c3         1 1XP       0.158800
     19 C13         -4.8470    -1.2420    -4.2610 c3         1 1XP       0.158800
     20 C14         -7.2060     0.3940    -4.6550 c3         1 1XP      -0.060900
     21 C15         -5.5080    -1.1490    -5.6380 c3         1 1XP      -0.060900
     22 C16         -7.0080    -0.8910    -5.4630 c3         1 1XP      -0.159700
     23 C17         -7.6540    -0.7400    -6.8160 c          1 1XP       0.573700
     24 C18         -9.0860    -1.0300    -6.9840 ca         1 1XP      -0.111600
     25 O3          -6.9940    -0.3780    -7.7670 o          1 1XP      -0.500100
     26 C19         -9.6890    -0.8900    -8.2380 ca         1 1XP      -0.119000
     27 C20         -9.8500    -1.4540    -5.8890 ca         1 1XP      -0.119000
     28 C21        -11.0310    -1.1640    -8.3880 ca         1 1XP      -0.191000
     29 C22        -11.1900    -1.7240    -6.0540 ca         1 1XP      -0.191000
     30 C23        -11.7840    -1.5780    -7.2990 ca         1 1XP       0.124900
     31 F1         -13.0990    -1.8460    -7.4530 f          1 1XP      -0.136900
     32 H1          -1.7750     0.0070     1.2140 ha         1 1XP       0.147000
     33 H2           3.1820     0.0000     1.2000 ha         1 1XP       0.162000
     34 H3          -2.5870    -0.2190    -0.4350 hn         1 1XP       0.297500
     35 H4           3.9180    -0.3700    -2.0340 h1         1 1XP       0.048700
     36 H5           3.8280    -0.6450    -0.2890 h1         1 1XP       0.048700
     37 H6           3.8610     1.0060    -0.9240 h1         1 1XP       0.048700
     38 H7          -3.6670     0.6810    -2.4680 h1         1 1XP       0.147200
     39 H8          -2.1680     0.3290    -3.3390 h1         1 1XP       0.147200
     40 H9          -4.5830     0.9000    -1.6910 h1         1 1XP       0.013200
     41 H10         -4.5910    -0.8690    -1.6860 h1         1 1XP       0.013200
     42 H12         -6.8880    -0.5200    -2.6620 h1         1 1XP       0.044450
     43 H13         -6.6150     1.2180    -2.8210 h1         1 1XP       0.044450
     44 H14         -5.1470    -2.0720    -3.6330 h1         1 1XP       0.044450
     45 H15         -3.7930    -1.3330    -4.4950 h1         1 1XP       0.044450
     46 H16         -8.2730     0.4580    -4.4840 hc         1 1XP       0.062450
     47 H17         -6.8670     1.3020    -5.1390 hc         1 1XP       0.062450
     48 H18         -4.9790    -0.4140    -6.2320 hc         1 1XP       0.062450
     49 H19         -5.4440    -2.1150    -6.1240 hc         1 1XP       0.062450
     50 H20         -7.4570    -1.7230    -4.9330 hc         1 1XP       0.066700
     51 H21         -9.5680    -1.6640    -8.9870 ha         1 1XP       0.186500
     52 H22         -9.7830    -2.4790    -5.5460 ha         1 1XP       0.186500
     53 H23        -11.5000    -1.0570    -9.3580 ha         1 1XP       0.154500
     54 H24        -11.7840    -2.0520    -5.2090 ha         1 1XP       0.154500
@<TRIPOS>BOND
     1     6    11 1   
     2     6     2 1   
     3     5     2 ar  
     4     5    10 ar  
     5     2     1 ar  
     6    14    10 1   
     7     8    13 1   
     8     8     4 1   
     9    13    16 1   
    10    10     7 ar  
    11     1     4 1   
    12     1     3 ar  
    13     4     9 2   
    14     7     3 ar  
    15     7    12 1   
    16    12    15 3   
    17    16    17 1   
    18    19    17 1   
    19    19    21 1   
    20    17    18 1   
    21    21    22 1   
    22    18    20 1   
    23    22    20 1   
    24    22    23 1   
    25    27    29 ar  
    26    27    24 ar  
    27    29    30 ar  
    28    23    24 1   
    29    23    25 2   
    30    24    26 ar  
    31    30    31 1   
    32    30    28 ar  
    33    26    28 ar  
    34     3    32 1   
    35     5    33 1   
    36     8    34 1   
    37    11    35 1   
    38    11    36 1   
    39    11    37 1   
    40    13    38 1   
    41    13    39 1   
    42    16    40 1   
    43    16    41 1   
    44    18    42 1   
    45    18    43 1   
    46    19    44 1   
    47    19    45 1   
    48    20    46 1   
    49    20    47 1   
    50    21    48 1   
    51    21    49 1   
    52    22    50 1   
    53    26    51 1   
    54    27    52 1   
    55    28    53 1   
    56    29    54 1   
@<TRIPOS>SUBSTRUCTURE
     1 1XP         1 TEMP              0 ****  ****    0 ROOT
