@<TRIPOS>MOLECULE
1XQ
   67    71     1     0     0
SMALL
bcc


@<TRIPOS>ATOM
      1 O1          -2.4820     0.0540     3.0910 os         1 1XQ      -0.392600
      2 C1          -1.8660     0.9160     4.0400 c3         1 1XQ       0.120400
      3 C2          -1.1710     0.1280     5.1420 c3         1 1XQ      -0.071200
      4 C3          -1.5480    -0.7390     2.3710 c3         1 1XQ       0.175600
      5 C4          -0.5470    -1.3870     3.2640 cc         1 1XQ      -0.231400
      6 C5          -0.3480    -0.9850     4.5650 cd         1 1XQ       0.180400
      7 N1           0.5910    -1.6010     5.3930 nd         1 1XQ      -0.662300
      8 C6           1.2980    -2.6040     4.8900 cc         1 1XQ       0.447900
      9 N2           1.1820    -3.0790     3.5920 ns         1 1XQ      -0.476400
     10 C7           0.2410    -2.4900     2.7030 c          1 1XQ       0.699700
     11 C8           2.3030    -3.3430     5.7790 c3         1 1XQ       0.063500
     12 N3           2.6270    -2.6470     7.0580 nx         1 1XQ      -0.580200
     13 O2           0.1680    -2.9470     1.5550 o          1 1XQ      -0.571500
     14 C9           3.1390    -3.6180     8.0990 c          1 1XQ       0.537100
     15 O3           3.5310    -4.7110     7.7190 o          1 1XQ      -0.430100
     16 C10          3.1400    -3.1660     9.5630 c3         1 1XQ       0.120800
     17 N4           2.1590    -2.1540     9.8500 n3         1 1XQ      -0.788600
     18 C11          2.6750    -0.9980    10.5750 c3         1 1XQ       0.173800
     19 C12          1.6430     0.1210    10.6920 c3         1 1XQ      -0.076400
     20 C13          0.3380    -0.3830    11.2900 c3         1 1XQ      -0.163700
     21 C14         -0.1630    -1.6040    10.5330 c3         1 1XQ      -0.076400
     22 C15          0.9190    -2.6740    10.4180 c3         1 1XQ       0.173800
     23 C16         -0.7120     0.7140    11.2130 c          1 1XQ       0.587700
     24 O4          -0.8550     1.3640    10.1700 o          1 1XQ      -0.530100
     25 C17         -1.5200     0.9750    12.4170 ca         1 1XQ      -0.201600
     26 C18         -2.0400     2.2650    12.6080 ca         1 1XQ      -0.057500
     27 C19         -3.0720     1.5520    14.6730 ca         1 1XQ       0.170900
     28 C20         -2.5690     0.2490    14.4780 ca         1 1XQ      -0.176500
     29 C21         -2.8050     2.5630    13.7290 ca         1 1XQ      -0.176500
     30 C22         -1.7990    -0.0260    13.3550 ca         1 1XQ      -0.057500
     31 F1          -3.8150     1.8280    15.7670 f          1 1XQ      -0.121900
     32 C23          3.6020    -1.5070     6.8510 c3         1 1XQ       0.226100
     33 C24          4.9630    -1.9230     6.4920 cc         1 1XQ      -0.261400
     34 C25          6.0160    -2.0420     7.3940 cd         1 1XQ      -0.098000
     35 C26          7.2360    -2.3710     6.7420 cd         1 1XQ      -0.151000
     36 C27          7.0620    -2.4820     5.3740 cc         1 1XQ      -0.121100
     37 S1           5.4950    -2.1860     4.9210 ss         1 1XQ       0.096200
     38 H1          -1.1400     1.5980     3.5250 h1         1 1XQ       0.067700
     39 H2          -2.7200     1.5130     4.4600 h1         1 1XQ       0.067700
     40 H3          -0.5370     0.8230     5.7520 hc         1 1XQ       0.083700
     41 H4          -1.9400    -0.3240     5.8270 hc         1 1XQ       0.083700
     42 H5          -2.1780    -1.5070     1.8430 h1         1 1XQ       0.086200
     43 H6          -1.0150    -0.1020     1.6110 h1         1 1XQ       0.086200
     44 H7           1.7250    -3.8530     3.2770 hn         1 1XQ       0.345500
     45 H8           3.2740    -3.5030     5.2200 hx         1 1XQ       0.123700
     46 H9           1.8620    -4.3560     6.0260 hx         1 1XQ       0.123700
     47 H10          4.1930    -2.7980     9.7580 h1         1 1XQ       0.106700
     48 H11          2.9870    -4.1160    10.1600 h1         1 1XQ       0.106700
     49 H13          3.0140    -1.2920    11.6110 h1         1 1XQ       0.044700
     50 H14          3.5730    -0.6040    10.0190 h1         1 1XQ       0.044700
     51 H15          1.4390     0.5690     9.6830 hc         1 1XQ       0.071200
     52 H16          2.0750     0.9250    11.3420 hc         1 1XQ       0.071200
     53 H17          0.5200    -0.6590    12.3650 hc         1 1XQ       0.074700
     54 H18         -1.0400    -2.0530    11.0680 hc         1 1XQ       0.071200
     55 H19         -0.5060    -1.2900     9.5110 hc         1 1XQ       0.071200
     56 H20          0.5460    -3.4960     9.7430 h1         1 1XQ       0.044700
     57 H21          1.1010    -3.1230    11.4380 h1         1 1XQ       0.044700
     58 H22         -1.8390     3.0440    11.8540 ha         1 1XQ       0.146000
     59 H23         -2.7940    -0.5350    15.2160 ha         1 1XQ       0.162500
     60 H24         -3.2080     3.5750    13.8850 ha         1 1XQ       0.162500
     61 H25         -1.4220    -1.0500    13.2050 ha         1 1XQ       0.146000
     62 H26          3.6160    -0.9250     7.8210 hx         1 1XQ       0.113200
     63 H27          3.1560    -0.8480     6.0480 hx         1 1XQ       0.113200
     64 H28          5.9400    -1.8860     8.4740 ha         1 1XQ       0.154000
     65 H29          8.1850    -2.5110     7.2690 ha         1 1XQ       0.182000
     66 H30          7.8530    -2.7260     4.6610 h4         1 1XQ       0.200000
     67 H31          1.7590    -2.2250     7.4370 hn         1 1XQ       0.495800
@<TRIPOS>BOND
     1     1     2 1   
     2     1     4 1   
     3     2     3 1   
     4     2    38 1   
     5     2    39 1   
     6     3     6 1   
     7     3    40 1   
     8     3    41 1   
     9     4     5 1   
    10     4    42 1   
    11     4    43 1   
    12     5     6 2   
    13     5    10 1   
    14     6     7 1   
    15     7     8 2   
    16     8     9 1   
    17     8    11 1   
    18     9    10 1   
    19     9    44 1   
    20    10    13 2   
    21    11    12 1   
    22    11    45 1   
    23    11    46 1   
    24    12    14 1   
    25    12    32 1   
    26    12    67 1   
    27    14    15 2   
    28    14    16 1   
    29    16    17 1   
    30    16    47 1   
    31    16    48 1   
    32    17    18 1   
    33    17    22 1   
    34    18    19 1   
    35    18    49 1   
    36    18    50 1   
    37    19    20 1   
    38    19    51 1   
    39    19    52 1   
    40    20    21 1   
    41    20    23 1   
    42    20    53 1   
    43    21    22 1   
    44    21    54 1   
    45    21    55 1   
    46    22    56 1   
    47    22    57 1   
    48    23    24 2   
    49    23    25 1   
    50    25    26 ar  
    51    25    30 ar  
    52    26    29 ar  
    53    26    58 1   
    54    27    28 ar  
    55    27    29 ar  
    56    27    31 1   
    57    28    30 ar  
    58    28    59 1   
    59    29    60 1   
    60    30    61 1   
    61    32    33 1   
    62    32    62 1   
    63    32    63 1   
    64    33    34 2   
    65    33    37 1   
    66    34    35 1   
    67    34    64 1   
    68    35    36 2   
    69    35    65 1   
    70    36    37 1   
    71    36    66 1   
@<TRIPOS>SUBSTRUCTURE
     1 1XQ         1 TEMP              0 ****  ****    0 ROOT
