@<TRIPOS>MOLECULE
molecule
   66    70     1     0     0
SMALL
bcc


@<TRIPOS>ATOM
      1 O1           0.0000     0.0000     0.0000 os         1 1XQ      -0.415600
      2 C1           1.4320     0.0000     0.0000 c3         1 1XQ       0.132400
      3 C2           1.9170     0.0000     1.4510 c3         1 1XQ      -0.066200
      4 C3          -0.5590    -1.2350     0.4510 c3         1 1XQ       0.207600
      5 C4           0.0530    -1.6350     1.7650 cc         1 1XQ      -0.308400
      6 C5           1.1980    -1.0720     2.2280 cd         1 1XQ       0.209400
      7 N1           1.7050    -1.4720     3.4010 nd         1 1XQ      -0.663300
      8 C6           1.1240    -2.3910     4.1230 cc         1 1XQ       0.477900
      9 N2          -0.0180    -2.9830     3.7210 ns         1 1XQ      -0.441400
     10 C7          -0.5790    -2.6270     2.5460 c          1 1XQ       0.695700
     11 C8           1.7440    -2.8000     5.4350 c3         1 1XQ       0.079700
     12 N3           2.9680    -2.0280     5.6580 n          1 1XQ      -0.470800
     13 O2          -1.6130    -3.1520     2.1670 o          1 1XQ      -0.642500
     14 C9           2.9130    -0.8500     6.3100 c          1 1XQ       0.674100
     15 O3           1.8480    -0.4290     6.7110 o          1 1XQ      -0.581100
     16 C10          4.1730    -0.0560     6.5400 c3         1 1XQ       0.093800
     17 N4           3.8480     1.1790     7.2650 n3         1 1XQ      -0.705600
     18 C11          3.0130     2.0680     6.4470 c3         1 1XQ       0.161300
     19 C12          2.5740     3.2720     7.2820 c3         1 1XQ      -0.063900
     20 C13          3.8140     4.0200     7.7790 c3         1 1XQ      -0.169700
     21 C14          4.6900     3.0610     8.5890 c3         1 1XQ      -0.063900
     22 C15          5.0670     1.8630     7.7150 c3         1 1XQ       0.161300
     23 C16          3.3900     5.1730     8.6530 c          1 1XQ       0.581700
     24 O4           2.3660     5.0990     9.3000 o          1 1XQ      -0.519100
     25 C17          4.2160     6.3870     8.7210 ca         1 1XQ      -0.193600
     26 C18          3.8250     7.4590     9.5310 ca         1 1XQ      -0.055500
     27 C19          5.7740     8.6750     8.8490 ca         1 1XQ       0.159900
     28 C20          6.1700     7.6130     8.0490 ca         1 1XQ      -0.183000
     29 C21          4.6040     8.5930     9.5900 ca         1 1XQ      -0.183000
     30 C22          5.4000     6.4730     7.9810 ca         1 1XQ      -0.055500
     31 F1           6.5340     9.7910     8.9110 f          1 1XQ      -0.136900
     32 C23          4.2530    -2.5370     5.1720 c3         1 1XQ       0.185300
     33 C24          4.8940    -3.3850     6.2400 cd         1 1XQ      -0.070400
     34 C25          4.7250    -4.7000     6.3820 cc         1 1XQ      -0.140000
     35 C26          5.4170    -5.2670     7.4390 cc         1 1XQ      -0.159000
     36 C27          6.1470    -4.4120     8.1550 cd         1 1XQ      -0.056100
     37 S1           5.9850    -2.7930     7.4870 ss         1 1XQ      -0.162800
     38 H1           1.7850     0.9000    -0.4890 h1         1 1XQ       0.054200
     39 H2           1.7850    -0.9000    -0.4890 h1         1 1XQ       0.054200
     40 H3           1.6900     0.9620     1.8930 hc         1 1XQ       0.074200
     41 H4           2.9790    -0.2140     1.4620 hc         1 1XQ       0.074200
     42 H5          -0.3390    -2.0020    -0.2810 h1         1 1XQ       0.070200
     43 H6          -1.6240    -1.1010     0.5920 h1         1 1XQ       0.070200
     44 H7          -0.4470    -3.6850     4.2910 hn         1 1XQ       0.338500
     45 H8           1.9830    -3.8560     5.4070 h1         1 1XQ       0.084700
     46 H9           1.0450    -2.6090     6.2400 h1         1 1XQ       0.084700
     47 H10          4.8700    -0.6450     7.1240 h1         1 1XQ       0.054200
     48 H11          4.6220     0.1940     5.5860 h1         1 1XQ       0.054200
     49 H13          3.5840     2.4120     5.5930 h1         1 1XQ       0.040200
     50 H14          2.1370     1.5270     6.1070 h1         1 1XQ       0.040200
     51 H15          1.9730     3.9350     6.6710 hc         1 1XQ       0.062700
     52 H16          1.9950     2.9290     8.1310 hc         1 1XQ       0.062700
     53 H17          4.3750     4.3910     6.9300 hc         1 1XQ       0.056700
     54 H18          4.1400     2.7150     9.4560 hc         1 1XQ       0.062700
     55 H19          5.5900     3.5740     8.9050 hc         1 1XQ       0.062700
     56 H20          5.6740     1.1740     8.2910 h1         1 1XQ       0.040200
     57 H21          5.6250     2.2080     6.8520 h1         1 1XQ       0.040200
     58 H22          2.9120     7.3970    10.1110 ha         1 1XQ       0.151000
     59 H23          7.0860     7.6820     7.4740 ha         1 1XQ       0.149500
     60 H24          4.3020     9.4250    10.2150 ha         1 1XQ       0.149500
     61 H25          5.7110     5.6450     7.3550 ha         1 1XQ       0.151000
     62 H26          4.0920    -3.1350     4.2840 h1         1 1XQ       0.067700
     63 H27          4.9040    -1.7040     4.9330 h1         1 1XQ       0.067700
     64 H28          4.0940    -5.2810     5.7200 ha         1 1XQ       0.144000
     65 H29          5.3670    -6.3250     7.6680 ha         1 1XQ       0.152000
     66 H30          6.7520    -4.6750     9.0150 h4         1 1XQ       0.174000
@<TRIPOS>BOND
     1    34    35 1
     2    34    33 2
     3     3     2 1
     4     3     6 1
     5     2     1 1
     6    32    33 1
     7    32    12 1
     8    35    36 2
     9    33    37 1
    10    16    14 1
    11    16    17 1
    12     7     6 1
    13     7     8 2
    14    18    17 1
    15    18    19 1
    16     6     5 2
    17     1     4 1
    18    12    14 1
    19    12    11 1
    20    36    37 1
    21    14    15 2
    22    17    22 1
    23     8    11 1
    24     8     9 1
    25    19    20 1
    26     5     4 1
    27     5    10 1
    28    22    21 1
    29    20    21 1
    30    20    23 1
    31     9    10 1
    32    10    13 2
    33    23    24 2
    34    23    25 1
    35    30    25 ar
    36    30    28 ar
    37    25    26 ar
    38    28    27 ar
    39    26    29 ar
    40    27    29 ar
    41    27    31 1
    42     2    38 1
    43     2    39 1
    44     3    40 1
    45     3    41 1
    46     4    42 1
    47     4    43 1
    48     9    44 1
    49    11    45 1
    50    11    46 1
    51    16    47 1
    52    16    48 1
    53    18    49 1
    54    18    50 1
    55    19    51 1
    56    19    52 1
    57    20    53 1
    58    21    54 1
    59    21    55 1
    60    22    56 1
    61    22    57 1
    62    26    58 1
    63    28    59 1
    64    29    60 1
    65    30    61 1
    66    32    62 1
    67    32    63 1
    68    34    64 1
    69    35    65 1
    70    36    66 1
@<TRIPOS>SUBSTRUCTURE
     1 1XQ         1 TEMP              0 ****  ****    0 ROOT
