@<TRIPOS>MOLECULE
1XS
   21    22     1     0     0
SMALL
bcc


@<TRIPOS>ATOM
      1 O01         1.7250    0.2020    0.0000 os        1 1XS     -0.323800
      2 C02         3.0540   -0.1880    0.0000 cc        1 1XS      0.278200
      3 C03         0.9520   -0.9730   -0.0000 cc        1 1XS      0.194200
      4 C04         3.1380   -1.5800   -0.0000 cd        1 1XS     -0.314300
      5 C05         1.7960   -2.0800   -0.0010 cd        1 1XS     -0.219300
      6 C06         4.1240    0.8960    0.0010 c         1 1XS      0.827100
      7 C07        -0.4750   -0.8290   -0.0010 ca        1 1XS     -0.067500
      8 C08        -2.4570    0.5790   -0.0010 ca        1 1XS     -0.011600
      9 C09        -1.0690    0.4450   -0.0000 ca        1 1XS     -0.099000
     10 C10        -3.2790   -0.5680   -0.0010 ca        1 1XS      0.092900
     11 O11         3.7540    2.0960    0.0010 o         1 1XS     -0.795300
     12 C12        -1.3000   -1.9670   -0.0020 ca        1 1XS     -0.123000
     13 C13        -2.6820   -1.8430   -0.0020 ca        1 1XS     -0.158000
     14 CL1        -3.1340    2.1410   -0.0000 cl        1 1XS     -0.093400
     15 O15         5.3130    0.4830    0.0020 o         1 1XS     -0.795300
     16 F16        -4.6310   -0.4740   -0.0020 f         1 1XS     -0.145900
     17 H041        4.0540   -2.1610   -0.0000 ha        1 1XS      0.162000
     18 H051        1.5000   -3.1250   -0.0010 ha        1 1XS      0.133000
     19 H091       -0.4180    1.3370    0.0000 ha        1 1XS      0.184000
     20 H121       -0.8410   -2.9670   -0.0020 ha        1 1XS      0.138000
     21 H131       -3.3250   -2.7330   -0.0020 ha        1 1XS      0.137000
@<TRIPOS>BOND
     1    1    2 1   
     2    1    3 1   
     3    2    4 2   
     4    2    6 1   
     5    3    5 2   
     6    3    7 1   
     7    4    5 1   
     8    4   17 1   
     9    5   18 1   
    10    6   11 1   
    11    6   15 1   
    12    7    9 ar  
    13    7   12 ar  
    14    8    9 ar  
    15    8   10 ar  
    16    8   14 1   
    17    9   19 1   
    18   10   13 ar  
    19   10   16 1   
    20   12   13 ar  
    21   12   20 1   
    22   13   21 1   
@<TRIPOS>SUBSTRUCTURE
     1 1XS         1 TEMP              0 ****  ****    0 ROOT
