@<TRIPOS>MOLECULE
1XS
   21    22     1     0     0
SMALL
bcc


@<TRIPOS>ATOM
      1 O01        -0.0400   -0.0130    0.0870 os        1 1XS     -0.323800
      2 C02         1.3460   -0.0140    0.0440 cc        1 1XS      0.278200
      3 C03        -0.4080   -0.0090    1.4450 cc        1 1XS      0.194200
      4 C04         1.8590   -0.0110    1.3400 cd        1 1XS     -0.314300
      5 C05         0.7390   -0.0080    2.2340 cd        1 1XS     -0.219300
      6 C06         2.0240   -0.0170   -1.3200 c         1 1XS      0.827100
      7 C07        -1.8090   -0.0070    1.7530 ca        1 1XS     -0.067500
      8 C08        -4.1300   -0.0070    1.0320 ca        1 1XS     -0.011600
      9 C09        -2.7700   -0.0090    0.7270 ca        1 1XS     -0.099000
     10 C10        -4.5530   -0.0040    2.3790 ca        1 1XS      0.092900
     11 O11         1.2980   -0.0180   -2.3440 o         1 1XS     -0.795300
     12 C12        -2.2370   -0.0050    3.0910 ca        1 1XS     -0.123000
     13 C13        -3.5890   -0.0030    3.4040 ca        1 1XS     -0.158000
     14 CL1        -5.2600   -0.0080   -0.2410 cl        1 1XS     -0.093400
     15 O15         3.2830   -0.0190   -1.2980 o         1 1XS     -0.795300
     16 F16        -5.8680   -0.0020    2.7110 f         1 1XS     -0.145900
     17 H041        2.9100   -0.0110    1.6070 ha        1 1XS      0.162000
     18 H051        0.7840   -0.0060    3.3190 ha        1 1XS      0.133000
     19 H091       -2.4290   -0.0110   -0.3230 ha        1 1XS      0.184000
     20 H121       -1.4890   -0.0040    3.8990 ha        1 1XS      0.138000
     21 H131       -3.9230   -0.0010    4.4510 ha        1 1XS      0.137000
@<TRIPOS>BOND
     1    1    2 1
     2    1    3 1
     3    2    4 2
     4    2    6 1
     5    3    5 2
     6    3    7 1
     7    4    5 1
     8    4   17 1
     9    5   18 1
    10    6   11 1
    11    6   15 1
    12    7    9 ar
    13    7   12 ar
    14    8    9 ar
    15    8   10 ar
    16    8   14 1
    17    9   19 1
    18   10   13 ar
    19   10   16 1
    20   12   13 ar
    21   12   20 1
    22   13   21 1
@<TRIPOS>SUBSTRUCTURE
     1 1XS         1 TEMP              0 ****  ****    0 ROOT
