@<TRIPOS>MOLECULE
1XT
   57    61     1     0     0
SMALL
bcc


@<TRIPOS>ATOM
      1 C01        -1.0720    1.6370   -0.2550 c         1 1XT      0.827100
      2 O02        -0.6830    2.7710   -0.6290 o         1 1XT     -0.804300
      3 O03        -1.3790    1.3170    0.9250 o         1 1XT     -0.804300
      4 C04        -1.1960    0.5320   -1.2900 cc        1 1XT      0.266200
      5 C05        -1.5960   -0.7970   -1.1850 cd        1 1XT     -0.311300
      6 C06        -1.5190   -1.3650   -2.5010 cd        1 1XT     -0.235300
      7 C07        -1.0760   -0.3560   -3.3500 cc        1 1XT      0.215200
      8 O08        -0.8730    0.8220   -2.6090 os        1 1XT     -0.326800
      9 C09        -0.8090   -0.3110   -4.7610 ca        1 1XT     -0.074500
     10 C10        -0.3270    0.8620   -5.3700 ca        1 1XT     -0.132000
     11 C11        -0.0790    0.8930   -6.7370 ca        1 1XT     -0.116000
     12 C12        -0.3120   -0.2390   -7.5280 ca        1 1XT     -0.116300
     13 C13        -0.7850   -1.4090   -6.9280 ca        1 1XT     -0.116000
     14 C14        -1.0290   -1.4460   -5.5580 ca        1 1XT     -0.132000
     15 C15        -0.0830   -0.1460   -8.9990 c3        1 1XT      0.181700
     16 O16         0.1630   -1.4670   -9.5050 os        1 1XT     -0.329900
     17 C17         0.2730   -1.5690  -10.8790 ca        1 1XT      0.120100
     18 C18         0.2540   -0.4890  -11.7690 ca        1 1XT     -0.187500
     19 C19         0.3700   -0.7280  -13.1370 ca        1 1XT     -0.088500
     20 C20         0.5040   -2.0320  -13.6310 ca        1 1XT     -0.033000
     21 C21         0.5360   -3.1050  -12.7250 ca        1 1XT     -0.088500
     22 C22         0.4210   -2.8850  -11.3590 ca        1 1XT     -0.187500
     23 C23         0.6660   -2.2390  -15.0570 cc        1 1XT     -0.085300
     24 C24         1.5100   -1.5360  -15.9220 cd        1 1XT     -0.248300
     25 C25         1.3730   -2.1850  -17.2220 cd        1 1XT      0.307800
     26 N26         0.4950   -3.2040  -17.1340 nc        1 1XT     -0.501800
     27 N27         0.0710   -3.2710  -15.8390 na        1 1XT      0.114300
     28 C28        -1.0170   -4.0920  -15.4590 ca        1 1XT      0.065800
     29 C29        -1.9660   -3.6610  -14.5090 ca        1 1XT     -0.161000
     30 C30        -3.0230   -4.4920  -14.1310 ca        1 1XT     -0.068300
     31 C31        -3.1590   -5.7560  -14.7120 ca        1 1XT     -0.164000
     32 C32        -2.2370   -6.1800  -15.6670 ca        1 1XT     -0.126000
     33 C33        -1.1730   -5.3700  -16.0460 ca        1 1XT     -0.135000
     34 C34        -3.9930   -4.0190  -13.1150 c3        1 1XT     -0.049800
     35 C35         2.1320   -1.7500  -18.4740 c         1 1XT      0.836100
     36 O36         2.8490   -2.6060  -19.0530 o         1 1XT     -0.811800
     37 O37         2.0050   -0.5440  -18.8160 o         1 1XT     -0.811800
     38 H2         -1.9050   -1.3000   -0.2750 ha        1 1XT      0.157000
     39 H3         -1.7610   -2.3860   -2.7740 ha        1 1XT      0.133000
     40 H4         -0.1500    1.7530   -4.7460 ha        1 1XT      0.144500
     41 H5          0.3030    1.8150   -7.2010 ha        1 1XT      0.130000
     42 H6         -0.9570   -2.3030   -7.5450 ha        1 1XT      0.130000
     43 H7         -1.4000   -2.3710   -5.0920 ha        1 1XT      0.144500
     44 H8         -0.9940    0.2800   -9.5020 h1        1 1XT      0.041700
     45 H9          0.8070    0.5010   -9.2270 h1        1 1XT      0.041700
     46 H10         0.1530    0.5430  -11.4080 ha        1 1XT      0.137500
     47 H11         0.3610    0.1180  -13.8430 ha        1 1XT      0.143500
     48 H12         0.6520   -4.1310  -13.1040 ha        1 1XT      0.143500
     49 H13         0.4460   -3.7190  -10.6450 ha        1 1XT      0.137500
     50 H14         2.1520   -0.6930  -15.7030 ha        1 1XT      0.165000
     51 H15        -1.8770   -2.6620  -14.0510 ha        1 1XT      0.149000
     52 H16        -3.9910   -6.4100  -14.4200 ha        1 1XT      0.117000
     53 H17        -2.3490   -7.1720  -16.1300 ha        1 1XT      0.119000
     54 H18        -0.4600   -5.7210  -16.8090 ha        1 1XT      0.160000
     55 H19        -3.4990   -3.9590  -12.1120 hc        1 1XT      0.039367
     56 H20        -4.3680   -2.9980  -13.3780 hc        1 1XT      0.039367
     57 H21        -4.8680   -4.7080  -13.0370 hc        1 1XT      0.039367
@<TRIPOS>BOND
     1    1    2 1
     2    1    3 1
     3    1    4 1
     4    4    5 2
     5    4    8 1
     6    5    6 1
     7    5   38 1
     8    6    7 2
     9    6   39 1
    10    7    8 1
    11    7    9 1
    12    9   10 ar
    13    9   14 ar
    14   10   11 ar
    15   10   40 1
    16   11   12 ar
    17   11   41 1
    18   12   13 ar
    19   12   15 1
    20   13   14 ar
    21   13   42 1
    22   14   43 1
    23   15   16 1
    24   15   44 1
    25   15   45 1
    26   16   17 1
    27   17   18 ar
    28   17   22 ar
    29   18   19 ar
    30   18   46 1
    31   19   20 ar
    32   19   47 1
    33   20   21 ar
    34   20   23 1
    35   21   22 ar
    36   21   48 1
    37   22   49 1
    38   23   24 2
    39   23   27 1
    40   24   25 1
    41   24   50 1
    42   25   26 2
    43   25   35 1
    44   26   27 1
    45   27   28 1
    46   28   29 ar
    47   28   33 ar
    48   29   30 ar
    49   29   51 1
    50   30   31 ar
    51   30   34 1
    52   31   32 ar
    53   31   52 1
    54   32   33 ar
    55   32   53 1
    56   33   54 1
    57   34   55 1
    58   34   56 1
    59   34   57 1
    60   35   36 1
    61   35   37 1
@<TRIPOS>SUBSTRUCTURE
     1 1XT         1 TEMP              0 ****  ****    0 ROOT
