@<TRIPOS>MOLECULE
1XU
   56    60     1     0     0
SMALL
bcc


@<TRIPOS>ATOM
      1 C01        -0.2890   -1.1460    0.5520 cc        1 1XU      0.303200
      2 C02         0.9780   -1.8290    0.6670 cc        1 1XU     -0.260300
      3 C03         1.7030   -1.0930    1.6220 cd        1 1XU     -0.076300
      4 N04         0.8560   -0.0300    2.0250 na        1 1XU      0.158300
      5 N05        -0.3210   -0.0680    1.3730 nd        1 1XU     -0.476800
      6 C06         1.2180    1.0580    2.8730 ca        1 1XU      0.016800
      7 C07         3.0160   -1.4000    2.1530 ca        1 1XU      0.021000
      8 C08         2.4520    1.7180    2.7030 ca        1 1XU     -0.126000
      9 C09         2.7900    2.7780    3.5350 ca        1 1XU     -0.111000
     10 C10         1.9120    3.2070    4.5370 ca        1 1XU      0.017400
     11 C11         0.6760    2.5630    4.6970 ca        1 1XU      0.020400
     12 C12         0.3240    1.4940    3.8680 ca        1 1XU     -0.103000
     13 CL1        -0.4190    3.0590    5.8910 cl        1 1XU     -0.049400
     14 CL2         2.3630    4.5010    5.5300 cl        1 1XU     -0.050400
     15 C15         3.2970   -1.2900    3.5230 ca        1 1XU     -0.111500
     16 C16         4.5500   -1.6450    4.0120 ca        1 1XU     -0.104000
     17 C17         5.5370   -2.1180    3.1400 ca        1 1XU     -0.170300
     18 C18         5.2630   -2.2290    1.7730 ca        1 1XU     -0.104000
     19 C19         4.0110   -1.8710    1.2810 ca        1 1XU     -0.111500
     20 C20         6.8890   -2.4700    3.6640 c3        1 1XU      0.159100
     21 N21         6.8770   -3.7860    4.3740 n4        1 1XU     -0.624800
     22 C22         8.2480   -4.1800    4.8930 c         1 1XU      0.208000
     23 C23         9.2250   -4.3700    3.8760 ca        1 1XU     -0.242600
     24 C24         8.8740   -4.8140    2.5650 ca        1 1XU     -0.080000
     25 C25         9.7980   -4.9530    1.5690 ca        1 1XU     -0.156000
     26 C26        11.1760   -4.6470    1.8000 ca        1 1XU      0.051500
     27 C27        11.5520   -4.2590    3.1140 ca        1 1XU     -0.199000
     28 C28        10.6140   -4.1350    4.1180 ca        1 1XU      0.124400
     29 S29         8.3200   -4.3030    6.4390 s         1 1XU     -0.221400
     30 C30        12.1060   -4.7240    0.7670 cc        1 1XU      0.125200
     31 C31        13.5080   -4.5040    0.6650 cd        1 1XU     -0.105300
     32 C32        13.8740   -4.7180   -0.6700 cd        1 1XU     -0.329300
     33 C33        12.6860   -5.0680   -1.3780 cc        1 1XU      0.395200
     34 O34        11.6270   -5.0820   -0.5270 os        1 1XU     -0.322800
     35 C35        12.4060   -5.3820   -2.8790 c         1 1XU      0.835100
     36 O36        11.8960   -4.4380   -3.5130 o         1 1XU     -0.737800
     37 O37        12.7390   -6.5270   -3.2400 o         1 1XU     -0.737800
     38 CL3        11.1680   -3.6340    5.6420 cl        1 1XU     -0.052400
     39 H1         -1.1350   -1.4110   -0.0840 h4        1 1XU      0.056100
     40 H2          1.2890   -2.7240    0.1420 ha        1 1XU      0.173000
     41 H3          3.1510    1.4030    1.9120 ha        1 1XU      0.156000
     42 H4          3.7550    3.2920    3.3950 ha        1 1XU      0.160000
     43 H5         -0.6590    1.0080    3.9930 ha        1 1XU      0.176000
     44 H6          2.5230   -0.9210    4.2150 ha        1 1XU      0.159500
     45 H7          4.7650   -1.5400    5.0870 ha        1 1XU      0.144500
     46 H8          6.0390   -2.5860    1.0770 ha        1 1XU      0.144500
     47 H9          3.7970   -1.9560    0.2030 ha        1 1XU      0.159500
     48 H10         7.2450   -1.6900    4.3970 hx        1 1XU      0.112200
     49 H11         7.6440   -2.5390    2.8260 hx        1 1XU      0.112200
     50 H12         6.5190   -4.5020    3.7340 hn        1 1XU      0.440800
     51 H13         7.8360   -5.1050    2.3390 ha        1 1XU      0.112000
     52 H14         9.5080   -5.3100    0.5660 ha        1 1XU      0.177000
     53 H15        12.6160   -4.0530    3.3160 ha        1 1XU      0.163000
     54 H16        14.1600   -4.2220    1.4900 ha        1 1XU      0.159000
     55 H17        14.8650   -4.6430   -1.1110 ha        1 1XU      0.182000
     56 H212        6.2410   -3.7290    5.1870 hn        1 1XU      0.440800
@<TRIPOS>BOND
     1    1    2 1   
     2    1    5 2   
     3    1   39 1   
     4    2    3 2   
     5    2   40 1   
     6    3    4 1   
     7    3    7 1   
     8    4    5 1   
     9    4    6 1   
    10    6    8 ar  
    11    6   12 ar  
    12    7   15 ar  
    13    7   19 ar  
    14    8    9 ar  
    15    8   41 1   
    16    9   10 ar  
    17    9   42 1   
    18   10   11 ar  
    19   10   14 1   
    20   11   12 ar  
    21   11   13 1   
    22   12   43 1   
    23   15   16 ar  
    24   15   44 1   
    25   16   17 ar  
    26   16   45 1   
    27   17   18 ar  
    28   17   20 1   
    29   18   19 ar  
    30   18   46 1   
    31   19   47 1   
    32   20   21 1   
    33   20   48 1   
    34   20   49 1   
    35   21   22 1   
    36   21   50 1   
    37   21   56 1   
    38   22   23 1   
    39   22   29 2   
    40   23   24 ar  
    41   23   28 ar  
    42   24   25 ar  
    43   24   51 1   
    44   25   26 ar  
    45   25   52 1   
    46   26   27 ar  
    47   26   30 1   
    48   27   28 ar  
    49   27   53 1   
    50   28   38 1   
    51   30   31 2   
    52   30   34 1   
    53   31   32 1   
    54   31   54 1   
    55   32   33 2   
    56   32   55 1   
    57   33   34 1   
    58   33   35 1   
    59   35   36 1   
    60   35   37 1   
@<TRIPOS>SUBSTRUCTURE
     1 1XU         1 TEMP              0 ****  ****    0 ROOT
