@<TRIPOS>MOLECULE
1XV
   86    91     1     0     0
SMALL
bcc


@<TRIPOS>ATOM
      1 C1           0.0000     0.0000     0.0000 ca         1 1XV      -0.090000
      2 C2           0.0110    -0.0030     2.4140 ca         1 1XV      -0.090000
      3 C3           0.3080    -7.0640    -3.3730 ca         1 1XV      -0.019000
      4 C4          -1.2150    -8.4140    -2.0640 ca         1 1XV      -0.019000
      5 Cl4          3.8100    -0.0010     1.1910 cl         1 1XV      -0.022400
      6 C5           0.2370    -6.0700    -2.4240 ca         1 1XV      -0.165500
      7 C6          -1.2850    -7.4140    -1.1200 ca         1 1XV      -0.165500
      8 C7           2.9130   -12.1460    -6.0640 ca         1 1XV      -0.251000
      9 C8           1.6140   -11.6760    -6.0520 ca         1 1XV       0.122000
     10 C9           1.3800     0.0000     0.0000 ca         1 1XV      -0.096500
     11 C10          1.3900     0.0010     2.4010 ca         1 1XV      -0.096500
     12 C11          1.0370   -13.2960    -4.3820 ca         1 1XV       0.143000
     13 C12         -0.6950     0.0020     1.2100 ca         1 1XV      -0.045800
     14 C13         -0.4200    -8.2440    -3.2020 ca         1 1XV      -0.210600
     15 C14         -0.5590    -6.2390    -1.2940 ca         1 1XV       0.059600
     16 C15          3.2770   -13.1980    -5.2320 ca         1 1XV       0.180600
     17 C16          2.3340   -13.7710    -4.3890 ca         1 1XV      -0.566200
     18 C17          0.6790   -12.2470    -5.2080 ca         1 1XV      -0.242500
     19 C18          2.0740     0.0000     1.1980 ca         1 1XV      -0.036600
     20 C19         -2.1730     0.0100     1.2160 ce         1 1XV      -0.069400
     21 C20         -2.8110    -1.0330     1.7040 c2         1 1XV      -0.160400
     22 C22         -2.8950     1.2110     0.6690 c3         1 1XV      -0.001200
     23 C23         -4.3110    -1.1190     1.7450 c3         1 1XV       0.274600
     24 C24          5.5840   -13.4980    -7.4720 c3         1 1XV      -0.085400
     25 C25          6.9960   -13.2660    -5.4290 c3         1 1XV      -0.085400
     26 C26         -1.5190    -5.6160     0.7670 c3         1 1XV       0.136300
     27 C27         -1.0550    -3.9620    -0.9380 c3         1 1XV       0.136300
     28 C28         -1.5060    -4.5200     1.8350 c3         1 1XV       0.137800
     29 C29         -1.0420    -2.8660     0.1300 c3         1 1XV       0.137800
     30 C30         -4.3560     0.8480     0.3910 c3         1 1XV       0.211400
     31 C31          6.7090   -12.8300    -8.2670 c3         1 1XV       0.221400
     32 C32          8.0660   -12.6070    -6.3030 c3         1 1XV       0.221400
     33 C33          5.6150   -12.9860    -6.0290 c3         1 1XV       0.129500
     34 C34         -2.0060    -2.1860     2.2450 c3         1 1XV       0.176000
     35 N35         -0.6280    -5.2330    -0.3370 nh         1 1XV      -0.357000
     36 N36         -1.9340    -3.2490     1.2330 n3         1 1XV      -0.539600
     37 N38         -1.0540   -10.4470    -4.0530 ns         1 1XV      -0.306300
     38 N39          2.7160   -14.8950    -3.5050 no         1 1XV       1.060200
     39 O40          1.9330   -15.8070    -3.3060 o          1 1XV      -0.453500
     40 O41          0.3400    -9.1610    -5.2100 o          1 1XV      -0.624100
     41 O42          3.8120   -14.9070    -2.9750 o          1 1XV      -0.453500
     42 O45         -4.8830     0.1740     1.5390 os         1 1XV      -0.406600
     43 O46          7.9620   -13.1040    -7.6380 os         1 1XV      -0.405600
     44 S47         -0.9770   -11.6440    -5.1970 sy         1 1XV       1.050900
     45 H1          -0.5430     0.0020    -0.9380 ha         1 1XV       0.116000
     46 H2          -0.5230    -0.0010     3.3560 ha         1 1XV       0.116000
     47 H3           0.9260    -6.9300    -4.2520 ha         1 1XV       0.111500
     48 H4          -1.7800    -9.3280    -1.9290 ha         1 1XV       0.111500
     49 H5           0.8010    -5.1540    -2.5560 ha         1 1XV       0.124500
     50 H6          -1.9020    -7.5440    -0.2390 ha         1 1XV       0.124500
     51 H7           3.6460   -11.6980    -6.7240 ha         1 1XV       0.135000
     52 H8           1.3300   -10.8550    -6.7000 ha         1 1XV       0.144000
     53 H9           1.9210    -0.0020    -0.9390 ha         1 1XV       0.116500
     54 H10          1.9390    -0.0020     3.3350 ha         1 1XV       0.116500
     55 H11          0.3010   -13.7410    -3.7240 ha         1 1XV       0.133000
     56 H22         -2.4210     1.5260    -0.2520 hc         1 1XV       0.029700
     57 H22A        -2.8560     2.0150     1.3940 hc         1 1XV       0.029700
     58 H23         -4.6210    -1.4970     2.7120 h1         1 1XV       0.019200
     59 H23A        -4.6520    -1.7900     0.9660 h1         1 1XV       0.019200
     60 H24A         4.6290   -13.2520    -7.9220 hc         1 1XV       0.033700
     61 H25          7.1650   -14.3360    -5.3960 hc         1 1XV       0.033700
     62 H25A         7.0440   -12.8560    -4.4270 hc         1 1XV       0.033700
     63 H26         -2.5270    -5.7400     0.3900 h1         1 1XV       0.025450
     64 H26A        -1.1740    -6.5460     1.2020 h1         1 1XV       0.025450
     65 H27         -2.0590    -4.0700    -1.3310 h1         1 1XV       0.025450
     66 H27A        -0.3750    -3.6950    -1.7370 h1         1 1XV       0.025450
     67 H28         -2.1870    -4.7870     2.6340 h1         1 1XV       0.023950
     68 H28A        -0.5030    -4.4120     2.2280 h1         1 1XV       0.023950
     69 H29         -1.3870    -1.9350    -0.3050 h1         1 1XV       0.023950
     70 H29A        -0.0340    -2.7430     0.5070 h1         1 1XV       0.023950
     71 H30         -4.4100     0.1940    -0.4720 h1         1 1XV       0.010200
     72 H30A        -4.9260     1.7510     0.2060 h1         1 1XV       0.010200
     73 H31          6.5460   -11.7590    -8.2920 h1         1 1XV       0.010950
     74 H31A         6.7190   -13.2230    -9.2760 h1         1 1XV       0.010950
     75 H32          7.9180   -11.5340    -6.3060 h1         1 1XV       0.010950
     76 H32A         9.0470   -12.8400    -5.9070 h1         1 1XV       0.010950
     77 H33          5.4280   -11.9190    -6.0210 h1         1 1XV       0.045700
     78 H34         -1.0060    -1.8470     2.4850 h1         1 1XV       0.028200
     79 H34A        -2.4820    -2.5710     3.1390 h1         1 1XV       0.028200
     80 HN38        -1.6480   -10.5570    -3.2550 hn         1 1XV       0.237500
     81 C21         -0.3520    -9.3100    -4.2200 c          1 1XV       0.680700
     82 N37          4.5890   -13.6760    -5.2420 nu         1 1XV      -0.388600
     83 O43         -1.1830   -11.0110    -6.4520 o          1 1XV      -0.568800
     84 O44         -1.7880   -12.7080    -4.7190 o          1 1XV      -0.568800
     85 H24          5.7260   -14.5720    -7.4770 hc         1 1XV       0.033700
     86 HN37         4.8220   -14.5070    -4.7360 hn         1 1XV       0.327800
@<TRIPOS>BOND
     1     1    10 ar  
     2     1    13 ar  
     3     1    45 1   
     4     2    11 ar  
     5     2    13 ar  
     6     2    46 1   
     7     3     6 ar  
     8     3    14 ar  
     9     3    47 1   
    10     4     7 ar  
    11     4    14 ar  
    12     4    48 1   
    13     5    19 1   
    14     6    15 ar  
    15     6    49 1   
    16     7    15 ar  
    17     7    50 1   
    18     8     9 ar  
    19     8    16 ar  
    20     8    51 1   
    21     9    18 ar  
    22     9    52 1   
    23    10    19 ar  
    24    10    53 1   
    25    11    19 ar  
    26    11    54 1   
    27    12    17 ar  
    28    12    18 ar  
    29    12    55 1   
    30    13    20 1   
    31    14    81 1   
    32    15    35 1   
    33    16    17 ar  
    34    16    82 1   
    35    17    38 1   
    36    18    44 1   
    37    20    21 2   
    38    20    22 1   
    39    21    23 1   
    40    21    34 1   
    41    22    30 1   
    42    22    56 1   
    43    22    57 1   
    44    23    42 1   
    45    23    58 1   
    46    23    59 1   
    47    24    31 1   
    48    24    33 1   
    49    24    60 1   
    50    24    85 1   
    51    25    32 1   
    52    25    33 1   
    53    25    61 1   
    54    25    62 1   
    55    26    28 1   
    56    26    35 1   
    57    26    63 1   
    58    26    64 1   
    59    27    29 1   
    60    27    35 1   
    61    27    65 1   
    62    27    66 1   
    63    28    36 1   
    64    28    67 1   
    65    28    68 1   
    66    29    36 1   
    67    29    69 1   
    68    29    70 1   
    69    30    42 1   
    70    30    71 1   
    71    30    72 1   
    72    31    43 1   
    73    31    73 1   
    74    31    74 1   
    75    32    43 1   
    76    32    75 1   
    77    32    76 1   
    78    33    77 1   
    79    33    82 1   
    80    34    36 1   
    81    34    78 1   
    82    34    79 1   
    83    37    44 1   
    84    37    80 1   
    85    37    81 1   
    86    38    39 1   
    87    38    41 1   
    88    40    81 2   
    89    44    83 2   
    90    44    84 2   
    91    82    86 1   
@<TRIPOS>SUBSTRUCTURE
     1 1XV         1 TEMP              0 ****  ****    0 ROOT
