@<TRIPOS>MOLECULE
molecule
   17    17     1     0     0
SMALL
bcc


@<TRIPOS>ATOM
      1 CAA          0.0000     0.0000     0.0000 c3         1 1XX      -0.031900
      2 CAF          1.5080     0.0000     0.0000 c2         1 1XX       0.129900
      3 OAE          2.2520     0.0000     1.1170 os         1 1XX      -0.283900
      4 CAI          3.6370     0.0010     0.7450 c3         1 1XX       0.014100
      5 CAB          4.3330     1.2560     1.2750 c3         1 1XX      -0.086100
      6 CAG          3.6220    -0.0000    -0.7700 c          1 1XX       0.536300
      7 OAC          4.5780    -0.0010    -1.5210 o          1 1XX      -0.509100
      8 CAH          2.2530    -0.0060    -1.1180 ce         1 1XX      -0.176100
      9 OAD          1.7650    -0.0080    -2.3900 oh         1 1XX      -0.475100
     10 H1          -0.3610     0.8720    -0.5320 hc         1 1XX       0.065700
     11 H2          -0.3610    -0.8970    -0.4890 hc         1 1XX       0.065700
     12 H3          -0.3610     0.0240     1.0210 hc         1 1XX       0.065700
     13 H4           4.1250    -0.8930     1.1160 h1         1 1XX       0.099700
     14 H5           3.9200     2.1310     0.7870 hc         1 1XX       0.056367
     15 H6           5.3950     1.1950     1.0670 hc         1 1XX       0.056367
     16 H7           4.1780     1.3310     2.3440 hc         1 1XX       0.056367
     17 H8           2.0550    -0.7860    -2.8370 ho         1 1XX       0.416000
@<TRIPOS>BOND
     1     5     4 1
     2     7     6 2
     3     6     4 1
     4     6     8 1
     5     4     3 1
     6     8     9 1
     7     8     2 2
     8     3     2 1
     9     2     1 1
    10     1    10 1
    11     1    11 1
    12     1    12 1
    13     4    13 1
    14     5    14 1
    15     5    15 1
    16     5    16 1
    17     9    17 1
@<TRIPOS>SUBSTRUCTURE
     1 1XX         1 TEMP              0 ****  ****    0 ROOT
