@<TRIPOS>MOLECULE
1XX
   17    17     1     0     0
SMALL
bcc


@<TRIPOS>ATOM
      1 CAA         -0.0190     0.0510     0.0610 c3         1 1XX      -0.044900
      2 CAF          1.4430    -0.0240    -0.0250 c2         1 1XX       0.102900
      3 OAE          2.1310     0.0670     1.1870 os         1 1XX      -0.321900
      4 CAI          3.5630    -0.0330     0.9150 c3         1 1XX       0.030100
      5 CAB          4.2530     1.2000     1.4420 c3         1 1XX      -0.095100
      6 CAG          3.6850    -0.1880    -0.6000 c          1 1XX       0.539300
      7 OAC          4.7140    -0.3110    -1.2600 o          1 1XX      -0.516100
      8 CAH          2.2910    -0.1720    -1.0850 ce         1 1XX      -0.137100
      9 OAD          1.8980    -0.2810    -2.3910 oh         1 1XX      -0.469100
     10 H1          -0.3290     1.0330     0.5010 hc         1 1XX       0.068033
     11 H2          -0.4090    -0.7670     0.7190 hc         1 1XX       0.068033
     12 H3          -0.4590    -0.0520    -0.9620 hc         1 1XX       0.068033
     13 H4           3.9100    -0.9640     1.4380 h1         1 1XX       0.099700
     14 H5           3.8160     2.1220     0.9890 hc         1 1XX       0.058033
     15 H6           5.3400     1.1480     1.1910 hc         1 1XX       0.058033
     16 H7           4.1300     1.2590     2.5500 hc         1 1XX       0.058033
     17 H8           2.7140    -0.3950    -2.9070 ho         1 1XX       0.433000
@<TRIPOS>BOND
     1     1     2 1   
     2     1    10 1   
     3     1    11 1   
     4     1    12 1   
     5     2     3 1   
     6     2     8 2   
     7     3     4 1   
     8     4     5 1   
     9     4     6 1   
    10     4    13 1   
    11     5    14 1   
    12     5    15 1   
    13     5    16 1   
    14     6     7 2   
    15     6     8 1   
    16     8     9 1   
    17     9    17 1   
@<TRIPOS>SUBSTRUCTURE
     1 1XX         1 TEMP              0 ****  ****    0 ROOT
