@<TRIPOS>MOLECULE
1XX
   17    17     1     0     0
SMALL
bcc


@<TRIPOS>ATOM
      1 CAA        -0.0210    0.0530    0.0910 c3        1 1XX     -0.044900
      2 CAF         1.4350   -0.0080   -0.0730 c2        1 1XX      0.102900
      3 OAE         2.1880    0.1320    1.0950 os        1 1XX     -0.321900
      4 CAI         3.6040    0.0400    0.7480 c3        1 1XX      0.030100
      5 CAB         4.3050    1.2980    1.1950 c3        1 1XX     -0.095100
      6 CAG         3.6450   -0.1650   -0.7660 c         1 1XX      0.539300
      7 OAC         4.6380   -0.2970   -1.4770 o         1 1XX     -0.516100
      8 CAH         2.2260   -0.1820   -1.1740 ce        1 1XX     -0.137100
      9 OAD         1.7640   -0.3390   -2.4510 oh        1 1XX     -0.469100
     10 H1         -0.3620   -0.7440    0.7990 hc        1 1XX      0.068033
     11 H2         -0.5140   -0.0950   -0.9020 hc        1 1XX      0.068033
     12 H3         -0.3190    1.0470    0.5100 hc        1 1XX      0.068033
     13 H4          3.9920   -0.8690    1.2810 h1        1 1XX      0.099700
     14 H5          4.2420    1.3930    2.3060 hc        1 1XX      0.058033
     15 H6          3.8320    2.1990    0.7370 hc        1 1XX      0.058033
     16 H7          5.3770    1.2500    0.8860 hc        1 1XX      0.058033
     17 H8          2.5520   -0.4620   -3.0070 ho        1 1XX      0.433000
@<TRIPOS>BOND
     1    1    2 1   
     2    1   10 1   
     3    1   11 1   
     4    1   12 1   
     5    2    3 1   
     6    2    8 2   
     7    3    4 1   
     8    4    5 1   
     9    4    6 1   
    10    4   13 1   
    11    5   14 1   
    12    5   15 1   
    13    5   16 1   
    14    6    7 2   
    15    6    8 1   
    16    8    9 1   
    17    9   17 1   
@<TRIPOS>SUBSTRUCTURE
     1 1XX         1 TEMP              0 ****  ****    0 ROOT
