@<TRIPOS>MOLECULE
1XY
   23    24     1     0     0
SMALL
bcc


@<TRIPOS>ATOM
      1 N34          0.0000     0.0000     0.0000 nz         1 1XY       0.063400
      2 C35          1.4690     0.0000     0.0000 c3         1 1XY       0.024800
      3 C37          1.9780     0.0000     1.4440 c3         1 1XY      -0.085400
      4 C38          3.4830     0.2970     1.4240 c3         1 1XY       0.239400
      5 O39          3.6730     1.6220     0.9250 os         1 1XY      -0.286900
      6 C40          3.0350     1.9650    -0.2250 ca         1 1XY       0.207100
      7 C41          3.4730     3.0900    -0.9160 ca         1 1XY      -0.110000
      8 C42          2.8460     3.4730    -2.0850 ca         1 1XY      -0.014000
      9 C43          1.7810     2.7380    -2.5700 ca         1 1XY      -0.098000
     10 C44          1.3450     1.6200    -1.8870 ca         1 1XY      -0.088000
     11 C45          1.9700     1.2290    -0.7140 ca         1 1XY      -0.277300
     12 H36         -0.3340    -0.2580    -0.9080 hn         1 1XY       0.227800
     13 H37          1.8340    -0.8840    -0.5090 hx         1 1XY       0.090700
     14 H38          1.4640     0.7660     2.0120 hc         1 1XY       0.045700
     15 H39          1.8060    -0.9720     1.8910 hc         1 1XY       0.045700
     16 H40          3.8660     0.2430     2.4360 h1         1 1XY       0.040200
     17 H41          3.9720    -0.4040     0.7590 h1         1 1XY       0.040200
     18 H42          4.3070     3.6670    -0.5370 ha         1 1XY       0.140000
     19 H43          3.1890     4.3500    -2.6200 ha         1 1XY       0.126000
     20 H44          1.2890     3.0380    -3.4880 ha         1 1XY       0.126000
     21 H45          0.5100     1.0460    -2.2700 ha         1 1XY       0.086000
     22 H2          -0.3340     0.9150     0.2310 hn         1 1XY       0.227800
     23 H343        -0.3340    -0.6570     0.6770 hn         1 1XY       0.227800
@<TRIPOS>BOND
     1     1     2 1   
     2     1    12 1   
     3     1    22 1   
     4     1    23 1   
     5     2     3 1   
     6     2    11 1   
     7     2    13 1   
     8     3     4 1   
     9     3    14 1   
    10     3    15 1   
    11     4     5 1   
    12     4    16 1   
    13     4    17 1   
    14     5     6 1   
    15     6     7 ar  
    16     6    11 ar  
    17     7     8 ar  
    18     7    18 1   
    19     8     9 ar  
    20     8    19 1   
    21     9    10 ar  
    22     9    20 1   
    23    10    11 ar  
    24    10    21 1   
@<TRIPOS>SUBSTRUCTURE
     1 1XY         1 TEMP              0 ****  ****    0 ROOT
