@<TRIPOS>MOLECULE
1XY
   23    24     1     0     0
SMALL
bcc


@<TRIPOS>ATOM
      1 N34         -0.1110     0.0850     0.0750 nz         1 1XY      -0.852600
      2 C35          1.4050     0.0200    -0.0100 c3         1 1XY       0.209800
      3 C37          2.0430     0.0060     1.3780 c3         1 1XY      -0.146400
      4 C38          2.0630     1.3940     1.9820 c3         1 1XY       0.118400
      5 O39          2.7560     2.3440     1.1720 os         1 1XY      -0.291900
      6 C40          2.5410     2.2570    -0.1850 ca         1 1XY       0.171100
      7 C41          3.0580     3.3250    -0.9480 ca         1 1XY      -0.142000
      8 C42          2.9210     3.2960    -2.3270 ca         1 1XY      -0.047000
      9 C43          2.2800     2.2190    -2.9610 ca         1 1XY      -0.142000
     10 C44          1.7780     1.1690    -2.2100 ca         1 1XY      -0.086000
     11 C45          1.8980     1.1760    -0.8080 ca         1 1XY      -0.271300
     12 H36         -0.4960     0.1610    -0.8710 hn         1 1XY       0.455133
     13 H37          1.6350    -0.9540    -0.5440 hx         1 1XY       0.116700
     14 H38          1.5250    -0.7060     2.0720 hc         1 1XY       0.102200
     15 H39          3.0990    -0.3620     1.2480 hc         1 1XY       0.102200
     16 H40          2.6390     1.4090     2.9490 h1         1 1XY       0.075700
     17 H41          1.0220     1.7770     2.1620 h1         1 1XY       0.075700
     18 H42          3.5660     4.1560    -0.4340 ha         1 1XY       0.179000
     19 H43          3.3230     4.1240    -2.9350 ha         1 1XY       0.167000
     20 H44          2.1870     2.2090    -4.0590 ha         1 1XY       0.163000
     21 H45          1.3020     0.3120    -2.7110 ha         1 1XY       0.133000
     22 H2          -0.4780    -0.7520     0.5320 hn         1 1XY       0.455133
     23 H343        -0.3910     0.9120     0.6100 hn         1 1XY       0.455133
@<TRIPOS>BOND
     1     1     2 1   
     2     1    12 1   
     3     1    22 1   
     4     1    23 1   
     5     2     3 1   
     6     2    11 1   
     7     2    13 1   
     8     3     4 1   
     9     3    14 1   
    10     3    15 1   
    11     4     5 1   
    12     4    16 1   
    13     4    17 1   
    14     5     6 1   
    15     6     7 ar  
    16     6    11 ar  
    17     7     8 ar  
    18     7    18 1   
    19     8     9 ar  
    20     8    19 1   
    21     9    10 ar  
    22     9    20 1   
    23    10    11 ar  
    24    10    21 1   
@<TRIPOS>SUBSTRUCTURE
     1 1XY         1 TEMP              0 ****  ****    0 ROOT
