@<TRIPOS>MOLECULE
molecule
   26    26     1     0     0
SMALL
bcc


@<TRIPOS>ATOM
      1 C30          0.0000     0.0000     0.0000 c          1 1Y2       0.864600
      2 O31          1.3430     0.0000     0.0000 o          1 1Y2      -0.769300
      3 C32         -0.7530     0.0000     1.3040 c3         1 1Y2      -0.032500
      4 N34         -2.1270     0.4680     1.0770 nz         1 1Y2      -0.851600
      5 C42         -0.7870    -1.4200     1.8750 c3         1 1Y2      -0.018700
      6 C43         -1.5520    -1.4210     3.1990 c3         1 1Y2      -0.196400
      7 C44         -1.5850    -2.8390     3.7680 c3         1 1Y2      -0.098900
      8 C45         -2.2840    -3.7710     2.7750 c3         1 1Y2       0.401600
      9 F46         -2.3140    -5.0690     3.2960 f          1 1Y2      -0.237300
     10 F47         -3.5910    -3.3250     2.5590 f          1 1Y2      -0.237300
     11 C48         -1.5180    -3.7710     1.4510 c3         1 1Y2      -0.098900
     12 C49         -1.4850    -2.3510     0.8810 c3         1 1Y2      -0.196400
     13 H28         -0.2590     0.6600     2.0070 hx         1 1Y2       0.097700
     14 H29         -1.7190     1.1090     1.7290 hn         1 1Y2       0.470133
     15 H39          0.2240    -1.7690     2.0440 hc         1 1Y2       0.089700
     16 H40         -0.4820    -1.5940     3.2120 hc         1 1Y2       0.089450
     17 H41         -1.6620    -0.5450     3.8280 hc         1 1Y2       0.089450
     18 H42         -0.5710    -3.1850     3.9340 hc         1 1Y2       0.071700
     19 H43         -2.1290    -2.8380     4.7050 hc         1 1Y2       0.071700
     20 H44         -0.5050    -4.1140     1.6210 hc         1 1Y2       0.071700
     21 H45         -2.0150    -4.4290     0.7480 hc         1 1Y2       0.071700
     22 H46         -2.4990    -2.0060     0.7160 hc         1 1Y2       0.089450
     23 H47         -0.9410    -2.3510    -0.0550 hc         1 1Y2       0.089450
     24 H2          -2.8380    -0.1220     1.4620 hn         1 1Y2       0.470133
     25 OXT         -0.6040     0.0400    -1.0450 o          1 1Y2      -0.769300
     26 H343        -2.2890     0.8630     0.1720 hn         1 1Y2       0.470133
@<TRIPOS>BOND
     1     4     3 1   
     2    12    11 1   
     3    12     5 1   
     4     3     5 1   
     5     3     1 1   
     6    11     8 1   
     7     5     6 1   
     8     1     2 1   
     9    10     8 1   
    10     8     9 1   
    11     8     7 1   
    12     6     7 1   
    13     3    13 1   
    14     4    14 1   
    15     5    15 1   
    16     6    16 1   
    17     6    17 1   
    18     7    18 1   
    19     7    19 1   
    20    11    20 1   
    21    11    21 1   
    22    12    22 1   
    23    12    23 1   
    24     4    24 1   
    25     1    25 1   
    26    26     4 1   
@<TRIPOS>SUBSTRUCTURE
     1 1Y2         1 TEMP              0 ****  ****    0 ROOT
