@<TRIPOS>MOLECULE
1Y3
   32    33     1     0     0
SMALL
bcc


@<TRIPOS>ATOM
      1 C1           0.0000     0.0000     0.0000 c3         1 1Y3      -0.000100
      2 C2           1.5300     0.0000     0.0000 c3         1 1Y3       0.206400
      3 O3           2.0060     0.0000     1.3470 os         1 1Y3      -0.393600
      4 C4           3.4310     0.0010     1.4600 c3         1 1Y3       0.169100
      5 C6           3.8670    -0.6610     2.7970 c3         1 1Y3      -0.024400
      6 C7           5.0470     0.2290     3.2240 c3         1 1Y3       0.123500
      7 C9           5.3050     0.2250     4.7250 c3         1 1Y3       0.106800
      8 N10          6.3640     1.2160     4.9930 n7         1 1Y3      -0.600200
      9 C11          6.0100     2.5620     4.5310 c3         1 1Y3       0.012500
     10 C13          5.6330     2.5500     3.0420 c3         1 1Y3       0.186800
     11 N14          4.5550     1.5880     2.8690 n3         1 1Y3      -0.508600
     12 C15          3.9640     1.4530     1.5400 c3         1 1Y3       0.129800
     13 C16          4.8420     3.0700     5.3350 c          1 1Y3       0.970600
     14 O17          4.1330     2.2920     5.9280 o          1 1Y3      -0.891800
     15 H1          -0.3610    -0.9010     0.4810 hc         1 1Y3       0.004033
     16 H2          -0.3610     0.0340    -1.0210 hc         1 1Y3       0.004033
     17 H3          -0.3610     0.8670     0.5400 hc         1 1Y3       0.004033
     18 H4           1.8910     0.8850    -0.5110 h1         1 1Y3      -0.018300
     19 H5           1.8910    -0.8850    -0.5110 h1         1 1Y3      -0.018300
     20 H6           3.8800    -0.5170     0.6220 h1         1 1Y3      -0.007300
     21 H7           3.0680    -0.6170     3.5270 hc         1 1Y3       0.025700
     22 H8           4.1940    -1.6810     2.6330 hc         1 1Y3       0.025700
     23 H9           5.9440    -0.0170     2.6690 h1         1 1Y3       0.004700
     24 H10          4.4010     0.5020     5.2540 h1         1 1Y3       0.041700
     25 H11          5.6350    -0.7580     5.0380 h1         1 1Y3       0.041700
     26 H12          6.8590     3.2200     4.6750 h1         1 1Y3       0.028700
     27 H13          5.2970     3.5350     2.7410 h1         1 1Y3       0.000200
     28 H14          6.4890     2.2510     2.4490 h1         1 1Y3       0.000200
     29 H16          4.7190     1.6140     0.7790 h1         1 1Y3       0.007200
     30 H17          3.1490     2.1560     1.4210 h1         1 1Y3       0.007200
     31 H18          6.5580     1.2410     5.9750 hn         1 1Y3       0.253800
     32 OXT          4.5870     4.3860     5.3910 o          1 1Y3      -0.891800
@<TRIPOS>BOND
     1     1     2 1   
     2     1    15 1   
     3     1    16 1   
     4     1    17 1   
     5     2     3 1   
     6     2    18 1   
     7     2    19 1   
     8     3     4 1   
     9     4     5 1   
    10     4    12 1   
    11     4    20 1   
    12     5     6 1   
    13     5    21 1   
    14     5    22 1   
    15     6     7 1   
    16     6    11 1   
    17     6    23 1   
    18     7     8 1   
    19     7    24 1   
    20     7    25 1   
    21     8     9 1   
    22     8    31 1   
    23     9    10 1   
    24     9    13 1   
    25     9    26 1   
    26    10    11 1   
    27    10    27 1   
    28    10    28 1   
    29    11    12 1   
    30    12    29 1   
    31    12    30 1   
    32    13    14 1   
    33    13    32 1   
@<TRIPOS>SUBSTRUCTURE
     1 1Y3         1 TEMP              0 ****  ****    0 ROOT
