@<TRIPOS>MOLECULE
1Y4
   25    26     1     0     0
SMALL
bcc


@<TRIPOS>ATOM
      1 N19          0.0000     0.0000     0.0000 n7         1 1Y4      -0.603200
      2 C20          1.4760     0.0000     0.0000 c3         1 1Y4       0.115800
      3 C21          1.9320     0.0000     1.4530 c3         1 1Y4       0.122500
      4 C23          3.4570     0.1180     1.6230 c3         1 1Y4      -0.022400
      5 C24          3.5770     0.7310     3.0450 c3         1 1Y4      -0.033400
      6 C25          2.2120     1.4170     3.3010 c3         1 1Y4       0.161800
      7 N26          1.4370     1.2620     2.0660 n3         1 1Y4      -0.519600
      8 C27         -0.0140     1.2350     2.1710 c3         1 1Y4       0.189800
      9 C28         -0.5660     1.1440     0.7230 c3         1 1Y4       0.014500
     10 C30         -0.1970     2.3970    -0.0270 c          1 1Y4       0.971600
     11 O31          0.5700     2.3400    -0.9600 o          1 1Y4      -0.896300
     12 H23          1.8420    -0.8880    -0.5000 h1         1 1Y4       0.036700
     13 H24          1.8420     0.8880    -0.5000 h1         1 1Y4       0.036700
     14 H25          1.5480    -0.8630     1.9820 h1         1 1Y4       0.006700
     15 H26          3.9250    -0.8580     1.5840 hc         1 1Y4       0.014700
     16 H27          3.8760     0.7860     0.8800 hc         1 1Y4       0.014700
     17 H28          3.7470    -0.0490     3.7770 hc         1 1Y4       0.000700
     18 H29          4.3750     1.4630     3.0730 hc         1 1Y4       0.000700
     19 H30          1.7010     0.9310     4.1230 h1         1 1Y4      -0.002300
     20 H31          2.3600     2.4690     3.5160 h1         1 1Y4      -0.002300
     21 H33         -0.3260     0.3680     2.7410 h1         1 1Y4       0.002200
     22 H34         -0.3660     2.1430     2.6440 h1         1 1Y4       0.002200
     23 H35         -1.6440     1.0450     0.7580 h1         1 1Y4       0.025700
     24 OXT         -0.7200     3.5770     0.3390 o          1 1Y4      -0.896300
     25 H2          -0.3340     0.0030    -0.9440 hn         1 1Y4       0.258800
@<TRIPOS>BOND
     1     1     2 1   
     2     1     9 1   
     3     1    25 1   
     4     2     3 1   
     5     2    12 1   
     6     2    13 1   
     7     3     4 1   
     8     3     7 1   
     9     3    14 1   
    10     4     5 1   
    11     4    15 1   
    12     4    16 1   
    13     5     6 1   
    14     5    17 1   
    15     5    18 1   
    16     6     7 1   
    17     6    19 1   
    18     6    20 1   
    19     7     8 1   
    20     8     9 1   
    21     8    21 1   
    22     8    22 1   
    23     9    10 1   
    24     9    23 1   
    25    10    11 1   
    26    10    24 1   
@<TRIPOS>SUBSTRUCTURE
     1 1Y4         1 TEMP              0 ****  ****    0 ROOT
