@<TRIPOS>MOLECULE
1Y5
   25    26     1     0     0
SMALL
bcc


@<TRIPOS>ATOM
      1 N32         -0.1080     0.1860     0.1540 nz         1 1Y5      -0.850600
      2 C33          1.3940     0.0260    -0.0130 c3         1 1Y5       0.202800
      3 C34          2.0900    -0.0390     1.3450 c3         1 1Y5      -0.107400
      4 C35          2.1670     1.3200     2.0010 c3         1 1Y5      -0.085400
      5 C36          2.9310     2.3050     1.1420 c3         1 1Y5      -0.058100
      6 C37          2.6010     2.2260    -0.3060 ca         1 1Y5      -0.025300
      7 C38          3.0550     3.2490    -1.1540 ca         1 1Y5      -0.127000
      8 C39          2.8210     3.1930    -2.5240 ca         1 1Y5      -0.071000
      9 C40          2.1320     2.1070    -3.0750 ca         1 1Y5      -0.119000
     10 C41          1.6740     1.0890    -2.2470 ca         1 1Y5      -0.115000
     11 C42          1.9000     1.1470    -0.8630 ca         1 1Y5      -0.191300
     12 H36         -0.5440     0.2720    -0.7690 hn         1 1Y5       0.454133
     13 H37          1.5320    -0.9620    -0.5520 hx         1 1Y5       0.108700
     14 H38          3.1310    -0.4240     1.1570 hc         1 1Y5       0.087200
     15 H39          1.5830    -0.7750     2.0220 hc         1 1Y5       0.087200
     16 H40          1.1380     1.7130     2.2140 hc         1 1Y5       0.058700
     17 H41          2.6840     1.2200     2.9940 hc         1 1Y5       0.058700
     18 H42          2.7420     3.3480     1.5170 hc         1 1Y5       0.083700
     19 H43          4.0360     2.1140     1.2530 hc         1 1Y5       0.083700
     20 H44          3.6090     4.0990    -0.7240 ha         1 1Y5       0.160000
     21 H45          3.1860     4.0010    -3.1790 ha         1 1Y5       0.163000
     22 H46          1.9590     2.0580    -4.1620 ha         1 1Y5       0.161000
     23 H47          1.1530     0.2240    -2.6860 ha         1 1Y5       0.132000
     24 H2          -0.3020     1.0370     0.6910 hn         1 1Y5       0.454133
     25 H323        -0.4970    -0.6190     0.6490 hn         1 1Y5       0.454133
@<TRIPOS>BOND
     1     1     2 1   
     2     1    12 1   
     3     1    24 1   
     4     1    25 1   
     5     2     3 1   
     6     2    11 1   
     7     2    13 1   
     8     3     4 1   
     9     3    14 1   
    10     3    15 1   
    11     4     5 1   
    12     4    16 1   
    13     4    17 1   
    14     5     6 1   
    15     5    18 1   
    16     5    19 1   
    17     6     7 ar  
    18     6    11 ar  
    19     7     8 ar  
    20     7    20 1   
    21     8     9 ar  
    22     8    21 1   
    23     9    10 ar  
    24     9    22 1   
    25    10    11 ar  
    26    10    23 1   
@<TRIPOS>SUBSTRUCTURE
     1 1Y5         1 TEMP              0 ****  ****    0 ROOT
