@<TRIPOS>MOLECULE
molecule
   25    26     1     0     0
SMALL
bcc


@<TRIPOS>ATOM
      1 N32          0.0000     0.0000     0.0000 nz         1 1Y5      -0.810600
      2 C33          1.4700     0.0000     0.0000 c3         1 1Y5       0.170800
      3 C34          1.9740     0.0000     1.4420 c3         1 1Y5      -0.107400
      4 C35          3.4910     0.2200     1.4240 c3         1 1Y5      -0.068400
      5 C36          3.7640     1.6580     0.9890 c3         1 1Y5      -0.048100
      6 C37          3.0210     1.9770    -0.2830 ca         1 1Y5      -0.033300
      7 C38          3.4350     3.0840    -1.0120 ca         1 1Y5      -0.111000
      8 C39          2.7930     3.4320    -2.1830 ca         1 1Y5      -0.080000
      9 C40          1.7290     2.6730    -2.6340 ca         1 1Y5      -0.104000
     10 C41          1.3190     1.5710    -1.9120 ca         1 1Y5      -0.144000
     11 C42          1.9660     1.2180    -0.7350 ca         1 1Y5      -0.166300
     12 H36         -0.3340    -0.2780    -0.9020 hn         1 1Y5       0.454133
     13 H37          1.8320    -0.8890    -0.5020 hx         1 1Y5       0.117700
     14 H38          1.4970     0.8010     1.9940 hc         1 1Y5       0.065700
     15 H39          1.7500    -0.9530     1.9050 hc         1 1Y5       0.065700
     16 H40          3.8800     0.0750     2.4250 hc         1 1Y5       0.074700
     17 H41          3.9370    -0.4570     0.7060 hc         1 1Y5       0.074700
     18 H42          4.8260     1.7670     0.8050 hc         1 1Y5       0.078700
     19 H43          3.4170     2.3260     1.7670 hc         1 1Y5       0.078700
     20 H44          4.2680     3.6800    -0.6590 ha         1 1Y5       0.159000
     21 H45          3.1190     4.2980    -2.7450 ha         1 1Y5       0.161000
     22 H46          1.2210     2.9410    -3.5530 ha         1 1Y5       0.157000
     23 H47          0.4860     0.9760    -2.2660 ha         1 1Y5       0.108000
     24 H2          -0.3340    -0.6420     0.6920 hn         1 1Y5       0.454133
     25 H323        -0.3340     0.9200     0.2100 hn         1 1Y5       0.454133
@<TRIPOS>BOND
     1     4     3 1   
     2     4     5 1   
     3     3     2 1   
     4     5     6 1   
     5     1     2 1   
     6     2    11 1   
     7     6    11 ar  
     8     6     7 ar  
     9    11    10 ar  
    10     7     8 ar  
    11    10     9 ar  
    12     8     9 ar  
    13     1    12 1   
    14     2    13 1   
    15     3    14 1   
    16     3    15 1   
    17     4    16 1   
    18     4    17 1   
    19     5    18 1   
    20     5    19 1   
    21     7    20 1   
    22     8    21 1   
    23     9    22 1   
    24    10    23 1   
    25     1    24 1   
    26    25     1 1   
@<TRIPOS>SUBSTRUCTURE
     1 1Y5         1 TEMP              0 ****  ****    0 ROOT
