@<TRIPOS>MOLECULE
1Y6
   14    14     1     0     0
SMALL
bcc


@<TRIPOS>ATOM
      1 CBH        -0.7830    0.2430   -0.3530 c         1 1Y6      0.908200
      2 OAF         0.4050    0.2180   -0.7800 o         1 1Y6     -0.827300
      3 CBJ         0.0930   -0.0850    2.0030 ca        1 1Y6     -0.120000
      4 CAP        -0.0970   -0.2320    3.3750 ca        1 1Y6     -0.144000
      5 CAN        -1.3800   -0.2130    3.9170 ca        1 1Y6     -0.195000
      6 CBI        -2.4820   -0.0430    3.0600 ca        1 1Y6      0.077900
      7 FAM        -3.7380   -0.0240    3.5820 f         1 1Y6     -0.174900
      8 CAO        -2.2930    0.1050    1.6740 ca        1 1Y6     -0.136000
      9 CAQ        -1.0010    0.0840    1.1470 ca        1 1Y6     -0.106600
     10 H26         1.1020   -0.0980    1.5590 ha        1 1Y6      0.154000
     11 H27         0.7670   -0.3640    4.0400 ha        1 1Y6      0.108000
     12 H28        -1.5410   -0.3270    4.9960 ha        1 1Y6      0.116000
     13 H29        -3.1480    0.2380    0.9930 ha        1 1Y6      0.165000
     14 OXT        -1.8020    0.3920   -1.0850 o         1 1Y6     -0.827300
@<TRIPOS>BOND
     1    1    2 1   
     2    1    9 1   
     3    1   14 1   
     4    3    4 ar  
     5    3    9 ar  
     6    3   10 1   
     7    4    5 ar  
     8    4   11 1   
     9    5    6 ar  
    10    5   12 1   
    11    6    7 1   
    12    6    8 ar  
    13    8    9 ar  
    14    8   13 1   
@<TRIPOS>SUBSTRUCTURE
     1 1Y6         1 TEMP              0 ****  ****    0 ROOT
