@<TRIPOS>MOLECULE
molecule
   33    32     1     0     0
SMALL
bcc


@<TRIPOS>ATOM
      1 O8           0.0000     0.0000     0.0000 o          1 1Y7      -0.910167
      2 P1           1.6100     0.0000     0.0000 p5         1 1Y7       1.180900
      3 O9           2.1050     0.0000     1.3950 o          1 1Y7      -0.910167
      4 O10          2.1470    -1.3150    -0.7600 o          1 1Y7      -0.910167
      5 O7           2.1460     1.3150    -0.7600 os         1 1Y7      -0.581200
      6 C7           3.5310     1.6580    -0.8370 c3         1 1Y7       0.201400
      7 C6           3.6910     2.9600    -1.6250 c3         1 1Y7       0.124100
      8 O6           3.0760     4.0310    -0.9050 oh         1 1Y7      -0.609800
      9 C5           5.1780     3.2620    -1.8150 c3         1 1Y7       0.129100
     10 O5           5.7930     2.1920    -2.5350 oh         1 1Y7      -0.616800
     11 C4           5.3370     4.5640    -2.6030 c3         1 1Y7       0.145100
     12 O4           4.7230     5.6350    -1.8840 oh         1 1Y7      -0.541800
     13 C3           6.8250     4.8670    -2.7940 c3         1 1Y7       0.138100
     14 O3           7.4740     4.8870    -1.5210 oh         1 1Y7      -0.572800
     15 C2           6.9870     6.2290    -3.4710 c3         1 1Y7       0.141100
     16 O2           6.2950     7.2230    -2.7120 oh         1 1Y7      -0.554800
     17 C1           8.4720     6.5870    -3.5500 c3         1 1Y7       0.102400
     18 O1           8.6300     7.8020    -4.2840 oh         1 1Y7      -0.622800
     19 H3           4.0730     0.8640    -1.3370 h1         1 1Y7       0.020700
     20 H4           3.9270     1.7910     0.1630 h1         1 1Y7       0.020700
     21 H5           3.2170     2.8560    -2.5930 h1         1 1Y7       0.029700
     22 H6           2.1640     4.0840    -1.1390 ho         1 1Y7       0.409000
     23 H7           5.6530     3.3650    -0.8470 h1         1 1Y7       0.068700
     24 H8           6.3980     1.7390    -1.9710 ho         1 1Y7       0.403000
     25 H9           4.8630     4.4610    -3.5720 h1         1 1Y7       0.032700
     26 H10          4.0220     5.9980    -2.3990 ho         1 1Y7       0.387000
     27 H11          7.2730     4.1000    -3.4140 h1         1 1Y7       0.043700
     28 H12          8.2060     4.2930    -1.5310 ho         1 1Y7       0.381000
     29 H13          6.5720     6.1850    -4.4710 h1         1 1Y7       0.032700
     30 H14          6.1080     7.9650    -3.2620 ho         1 1Y7       0.386000
     31 H15          9.0090     5.7900    -4.0500 h1         1 1Y7       0.030700
     32 H16          8.8660     6.7150    -2.5490 h1         1 1Y7       0.030700
     33 H17          9.5460     7.9520    -4.4510 ho         1 1Y7       0.393000
@<TRIPOS>BOND
     1    16    15 1
     2    15    13 1
     3    15    17 1
     4    13    11 1
     5    13    14 1
     6    18    17 1
     7    11     9 1
     8    11    12 1
     9     3     2 1
    10     9    10 1
    11     9     7 1
    12     1     2 1
    13     5     2 1
    14     5     6 1
    15     2     4 1
    16     8     7 1
    17     7     6 1
    18     6    19 1
    19     6    20 1
    20     7    21 1
    21     8    22 1
    22     9    23 1
    23    10    24 1
    24    11    25 1
    25    12    26 1
    26    13    27 1
    27    14    28 1
    28    15    29 1
    29    16    30 1
    30    17    31 1
    31    17    32 1
    32    18    33 1
@<TRIPOS>SUBSTRUCTURE
     1 1Y7         1 TEMP              0 ****  ****    0 ROOT
