@<TRIPOS>MOLECULE
1Y7
   33    32     1     0     0
SMALL
bcc


@<TRIPOS>ATOM
      1 O8           0.0400    -1.2250     0.2930 o          1 1Y7      -0.919167
      2 P1           1.3310    -0.4310     0.2470 p5         1 1Y7       1.327900
      3 O9           2.0630    -0.2540     1.5400 o          1 1Y7      -0.919167
      4 O10          1.3000     0.7140    -0.7230 o          1 1Y7      -0.919167
      5 O7           2.3140    -1.5910    -0.6040 os         1 1Y7      -0.573200
      6 C7           1.9320    -1.7840    -1.9070 c3         1 1Y7       0.200400
      7 C6           1.4810    -3.2490    -2.1260 c3         1 1Y7       0.074100
      8 O6           2.4140    -4.1360    -1.5200 oh         1 1Y7      -0.671800
      9 C5           0.0770    -3.5320    -1.5590 c3         1 1Y7       0.121100
     10 O5          -0.8110    -2.4900    -1.9030 oh         1 1Y7      -0.707800
     11 C4          -0.5750    -4.8060    -2.1410 c3         1 1Y7       0.101100
     12 O4          -0.7310    -4.7180    -3.5550 oh         1 1Y7      -0.645800
     13 C3           0.1880    -6.1000    -1.8230 c3         1 1Y7       0.160100
     14 O3           1.1930    -6.4140    -2.7770 oh         1 1Y7      -0.631800
     15 C2          -0.7290    -7.3410    -1.8150 c3         1 1Y7       0.143100
     16 O2          -1.5350    -7.2780    -0.6480 oh         1 1Y7      -0.596800
     17 C1          -1.5810    -7.3920    -3.0830 c3         1 1Y7       0.086400
     18 O1          -2.2720    -8.6390    -3.0790 oh         1 1Y7      -0.635800
     19 H3           1.1130    -1.0760    -2.2120 h1         1 1Y7       0.007200
     20 H4           2.8210    -1.6280    -2.5910 h1         1 1Y7       0.007200
     21 H5           1.5040    -3.4950    -3.2240 h1         1 1Y7       0.012700
     22 H6           2.7120    -3.6950    -0.7070 ho         1 1Y7       0.445000
     23 H7           0.1540    -3.6270    -0.4390 h1         1 1Y7       0.091700
     24 H8          -0.6620    -1.7690    -1.2200 ho         1 1Y7       0.516000
     25 H9          -1.6060    -4.8900    -1.6880 h1         1 1Y7       0.045700
     26 H10         -0.7890    -3.7740    -3.7600 ho         1 1Y7       0.426000
     27 H11          0.6620    -5.9850    -0.8060 h1         1 1Y7       0.072700
     28 H12          1.6920    -5.5980    -2.9240 ho         1 1Y7       0.442000
     29 H13         -0.0900    -8.2680    -1.7650 h1         1 1Y7       0.039700
     30 H14         -2.2210    -7.9460    -0.7610 ho         1 1Y7       0.396000
     31 H15         -0.9100    -7.3120    -3.9780 h1         1 1Y7       0.058700
     32 H16         -2.3200    -6.5470    -3.0940 h1         1 1Y7       0.058700
     33 H17         -2.8050    -8.6510    -3.8790 ho         1 1Y7       0.387000
@<TRIPOS>BOND
     1     1     2 1   
     2     2     3 1   
     3     2     4 1   
     4     2     5 1   
     5     5     6 1   
     6     6     7 1   
     7     6    19 1   
     8     6    20 1   
     9     7     8 1   
    10     7     9 1   
    11     7    21 1   
    12     8    22 1   
    13     9    10 1   
    14     9    11 1   
    15     9    23 1   
    16    10    24 1   
    17    11    12 1   
    18    11    13 1   
    19    11    25 1   
    20    12    26 1   
    21    13    14 1   
    22    13    15 1   
    23    13    27 1   
    24    14    28 1   
    25    15    16 1   
    26    15    17 1   
    27    15    29 1   
    28    16    30 1   
    29    17    18 1   
    30    17    31 1   
    31    17    32 1   
    32    18    33 1   
@<TRIPOS>SUBSTRUCTURE
     1 1Y7         1 TEMP              0 ****  ****    0 ROOT
