@<TRIPOS>MOLECULE
1Y7
   33    32     1     0     0
SMALL
bcc


@<TRIPOS>ATOM
      1 O8          0.0930    0.4890   -0.0860 o         1 1Y7     -0.913833
      2 P1          1.4690    1.0120    0.1790 p5        1 1Y7      1.324900
      3 O9          1.6030    2.5090    0.4000 o         1 1Y7     -0.913833
      4 O10         2.3960    0.1800    1.0160 o         1 1Y7     -0.913833
      5 O7          2.2450    0.9460   -1.3800 os        1 1Y7     -0.558200
      6 C7          3.5610    1.3110   -1.3470 c3        1 1Y7      0.205400
      7 C6          3.7840    2.6550   -2.0880 c3        1 1Y7      0.095100
      8 O6          3.0700    3.7210   -1.5220 oh        1 1Y7     -0.719800
      9 C5          5.2930    3.0020   -2.0840 c3        1 1Y7      0.089100
     10 O5          5.9680    2.3110   -3.1340 oh        1 1Y7     -0.641800
     11 C4          5.5220    4.5060   -2.3020 c3        1 1Y7      0.136100
     12 O4          5.2630    5.2370   -1.1110 oh        1 1Y7     -0.676800
     13 C3          6.9780    4.8370   -2.6830 c3        1 1Y7      0.112100
     14 O3          7.8520    4.7900   -1.5720 oh        1 1Y7     -0.605800
     15 C2          7.0580    6.2210   -3.3530 c3        1 1Y7      0.080100
     16 O2          6.8210    7.2830   -2.4380 oh        1 1Y7     -0.642800
     17 C1          8.4610    6.4570   -3.9170 c3        1 1Y7      0.134400
     18 O1          8.5980    7.7510   -4.4760 oh        1 1Y7     -0.625800
     19 H3          3.9330    1.4090   -0.2870 h1        1 1Y7     -0.006800
     20 H4          4.1930    0.5400   -1.8840 h1        1 1Y7     -0.006800
     21 H5          3.4530    2.5550   -3.1620 h1        1 1Y7      0.013700
     22 H6          2.4250    3.3360   -0.8400 ho        1 1Y7      0.525000
     23 H7          5.7600    2.7030   -1.1050 h1        1 1Y7      0.054700
     24 H8          5.5210    1.4600   -3.2290 ho        1 1Y7      0.416000
     25 H9          4.8270    4.8650   -3.1110 h1        1 1Y7      0.048700
     26 H10         4.4380    4.8920   -0.7230 ho        1 1Y7      0.480000
     27 H11         7.3670    4.0550   -3.3940 h1        1 1Y7      0.096700
     28 H12         7.3970    5.2110   -0.8300 ho        1 1Y7      0.420000
     29 H13         6.2960    6.2850   -4.1790 h1        1 1Y7      0.043700
     30 H14         6.0860    7.0130   -1.8670 ho        1 1Y7      0.443000
     31 H15         8.6630    5.7470   -4.7600 h1        1 1Y7      0.048200
     32 H16         9.2200    6.3140   -3.1020 h1        1 1Y7      0.048200
     33 H17         8.2280    8.3720   -3.8370 ho        1 1Y7      0.414000
@<TRIPOS>BOND
     1    1    2 1   
     2    2    3 1   
     3    2    4 1   
     4    2    5 1   
     5    5    6 1   
     6    6    7 1   
     7    6   19 1   
     8    6   20 1   
     9    7    8 1   
    10    7    9 1   
    11    7   21 1   
    12    8   22 1   
    13    9   10 1   
    14    9   11 1   
    15    9   23 1   
    16   10   24 1   
    17   11   12 1   
    18   11   13 1   
    19   11   25 1   
    20   12   26 1   
    21   13   14 1   
    22   13   15 1   
    23   13   27 1   
    24   14   28 1   
    25   15   16 1   
    26   15   17 1   
    27   15   29 1   
    28   16   30 1   
    29   17   18 1   
    30   17   31 1   
    31   17   32 1   
    32   18   33 1   
@<TRIPOS>SUBSTRUCTURE
     1 1Y7         1 TEMP              0 ****  ****    0 ROOT
