@<TRIPOS>MOLECULE
molecule
   33    33     1     0     0
SMALL
bcc


@<TRIPOS>ATOM
      1 O1           0.0000     0.0000     0.0000 oh         1 1Y9      -0.567800
      2 C2           1.4290     0.0000     0.0000 c3         1 1Y9       0.156100
      3 C3           1.9840     0.0000     1.4430 c3         1 1Y9      -0.152800
      4 C4           0.9820    -0.6070     2.3910 c          1 1Y9       0.578900
      5 O5          -0.0780    -1.0050     1.9750 o          1 1Y9      -0.491100
      6 C6           3.3090    -0.7650     1.5040 c3         1 1Y9      -0.025200
      7 C7           3.8310    -0.7520     2.9170 c2         1 1Y9      -0.186200
      8 C8           4.0610    -1.8810     3.5410 c2         1 1Y9      -0.130400
      9 C9           4.7060    -1.8730     4.9030 c3         1 1Y9      -0.053400
     10 C10          3.6810    -3.1890     2.8950 c3         1 1Y9      -0.053400
     11 C11          2.2030     1.4580     1.7710 c2         1 1Y9      -0.136200
     12 C12          2.2030     2.1890     0.6880 c2         1 1Y9      -0.128400
     13 C13          2.3970     3.6830     0.6670 c3         1 1Y9       0.195600
     14 O14          2.5770     4.1580     2.0040 oh         1 1Y9      -0.608800
     15 C15          1.9840     1.3380    -0.5420 c3         1 1Y9      -0.074200
     16 H1          -0.3140    -0.3700    -0.8080 ho         1 1Y9       0.398000
     17 H2           1.8240    -0.8360    -0.5640 h1         1 1Y9       0.042700
     18 H3           1.1890    -0.6290     3.4550 h4         1 1Y9      -0.000800
     19 H6           4.0300    -0.2910     0.8480 hc         1 1Y9       0.054200
     20 H7           3.1500    -1.7880     1.1870 hc         1 1Y9       0.054200
     21 H8           4.1050     0.1880     3.3820 ha         1 1Y9       0.136000
     22 H9           5.3900    -2.7090     4.9830 hc         1 1Y9       0.042200
     23 H10          5.2500    -0.9460     5.0390 hc         1 1Y9       0.042200
     24 H11          3.9410    -1.9570     5.6650 hc         1 1Y9       0.042200
     25 H12          4.2240    -3.3030     1.9650 hc         1 1Y9       0.042200
     26 H13          3.9300    -4.0060     3.5610 hc         1 1Y9       0.042200
     27 H14          2.6170    -3.1970     2.6950 hc         1 1Y9       0.042200
     28 H15          1.8260     1.8670     2.7000 ha         1 1Y9       0.159000
     29 H18          1.5240     4.1540     0.2310 h1         1 1Y9       0.031200
     30 H19          3.2720     3.9260     0.0770 h1         1 1Y9       0.031200
     31 H20          2.7170     5.0910     1.9900 ho         1 1Y9       0.405000
     32 H21          2.9220     1.1740    -1.0580 hc         1 1Y9       0.056700
     33 H22          1.2610     1.8060    -1.1990 hc         1 1Y9       0.056700
@<TRIPOS>BOND
     1     5     4 2   
     2     4     3 1   
     3     1     2 1   
     4     6     3 1   
     5     6     7 1   
     6     9     8 1   
     7     3     2 1   
     8     3    11 1   
     9     2    15 1   
    10     7     8 2   
    11     8    10 1   
    12    11    12 2   
    13    15    12 1   
    14    12    13 1   
    15    13    14 1   
    16     1    16 1   
    17     2    17 1   
    18     4    18 1   
    19     6    19 1   
    20     6    20 1   
    21     7    21 1   
    22     9    22 1   
    23     9    23 1   
    24     9    24 1   
    25    10    25 1   
    26    10    26 1   
    27    10    27 1   
    28    11    28 1   
    29    13    29 1   
    30    13    30 1   
    31    14    31 1   
    32    15    32 1   
    33    15    33 1   
@<TRIPOS>SUBSTRUCTURE
     1 1Y9         1 TEMP              0 ****  ****    0 ROOT
