@<TRIPOS>MOLECULE
1Y9
   33    33     1     0     0
SMALL
bcc


@<TRIPOS>ATOM
      1 O1           0.2870    -0.5930     0.2180 oh         1 1Y9      -0.600800
      2 C2           1.6420    -0.1810     0.1550 c3         1 1Y9       0.145100
      3 C3           2.1810     0.0330     1.6050 c3         1 1Y9      -0.136800
      4 C4           1.0550    -0.0160     2.6220 c          1 1Y9       0.598900
      5 O5           1.1630    -0.5660     3.7170 o          1 1Y9      -0.531100
      6 C6           3.2500    -0.9960     1.9540 c3         1 1Y9      -0.033200
      7 C7           4.4250    -0.9700     1.0540 c2         1 1Y9      -0.183200
      8 C8           5.3410    -1.9500     1.0060 c2         1 1Y9      -0.119400
      9 C9           5.2420    -3.1700     1.8430 c3         1 1Y9      -0.059400
     10 C10          6.5160    -1.8760     0.1060 c3         1 1Y9      -0.059400
     11 C11          2.7330     1.4390     1.5790 c2         1 1Y9      -0.128200
     12 C12          2.5140     2.0530     0.4020 c2         1 1Y9      -0.137400
     13 C13          2.8940     3.4250    -0.0010 c3         1 1Y9       0.183600
     14 O14          3.5720     4.0560     1.0760 oh         1 1Y9      -0.595800
     15 C15          1.7890     1.1750    -0.5730 c3         1 1Y9      -0.086200
     16 H1           0.0130    -0.7760    -0.6880 ho         1 1Y9       0.407000
     17 H2           2.2530    -0.9710    -0.3610 h1         1 1Y9       0.054700
     18 H3           0.1210     0.4950     2.3020 h4         1 1Y9       0.020200
     19 H6           2.7750    -2.0160     1.9440 hc         1 1Y9       0.067200
     20 H7           3.5880    -0.8080     3.0120 hc         1 1Y9       0.067200
     21 H8           4.5270    -0.0710     0.4230 ha         1 1Y9       0.127000
     22 H9           5.0490    -2.8980     2.9120 hc         1 1Y9       0.041533
     23 H10          6.1820    -3.7720     1.7960 hc         1 1Y9       0.041533
     24 H11          4.3940    -3.8110     1.4930 hc         1 1Y9       0.041533
     25 H12          6.4960    -0.9550    -0.5260 hc         1 1Y9       0.041533
     26 H13          6.5410    -2.7680    -0.5690 hc         1 1Y9       0.041533
     27 H14          7.4590    -1.8690     0.7090 hc         1 1Y9       0.041533
     28 H15          3.2490     1.8540     2.4480 ha         1 1Y9       0.165000
     29 H18          3.5690     3.3850    -0.9020 h1         1 1Y9       0.031700
     30 H19          1.9710     4.0130    -0.2670 h1         1 1Y9       0.031700
     31 H20          3.7850     4.9480     0.7760 ho         1 1Y9       0.403000
     32 H21          0.7850     1.6000    -0.8240 hc         1 1Y9       0.059200
     33 H22          2.3710     1.0590    -1.5200 hc         1 1Y9       0.059200
@<TRIPOS>BOND
     1     1     2 1   
     2     1    16 1   
     3     2     3 1   
     4     2    15 1   
     5     2    17 1   
     6     3     4 1   
     7     3     6 1   
     8     3    11 1   
     9     4     5 2   
    10     4    18 1   
    11     6     7 1   
    12     6    19 1   
    13     6    20 1   
    14     7     8 2   
    15     7    21 1   
    16     8     9 1   
    17     8    10 1   
    18     9    22 1   
    19     9    23 1   
    20     9    24 1   
    21    10    25 1   
    22    10    26 1   
    23    10    27 1   
    24    11    12 2   
    25    11    28 1   
    26    12    13 1   
    27    12    15 1   
    28    13    14 1   
    29    13    29 1   
    30    13    30 1   
    31    14    31 1   
    32    15    32 1   
    33    15    33 1   
@<TRIPOS>SUBSTRUCTURE
     1 1Y9         1 TEMP              0 ****  ****    0 ROOT
