@<TRIPOS>MOLECULE
1Y9
   33    33     1     0     0
SMALL
bcc


@<TRIPOS>ATOM
      1 O1          0.0050   -0.0690   -0.3740 oh        1 1Y9     -0.599800
      2 C2          1.3720    0.1500   -0.0990 c3        1 1Y9      0.160100
      3 C3          1.7260    0.0940    1.4280 c3        1 1Y9     -0.177800
      4 C4          0.5250   -0.2150    2.2930 c         1 1Y9      0.600900
      5 O5         -0.2460   -1.1470    2.0640 o         1 1Y9     -0.539100
      6 C6          2.7950   -0.9720    1.6710 c3        1 1Y9     -0.027200
      7 C7          3.2110   -1.0780    3.0890 c2        1 1Y9     -0.190200
      8 C8          3.9570   -2.0890    3.5630 c2        1 1Y9     -0.107400
      9 C9          4.3640   -2.1570    4.9870 c3        1 1Y9     -0.061400
     10 C10         4.4160   -3.2060    2.7030 c3        1 1Y9     -0.061400
     11 C11         2.2520    1.4750    1.7270 c2        1 1Y9     -0.143200
     12 C12         2.2380    2.2750    0.6460 c2        1 1Y9     -0.126400
     13 C13         2.6720    3.6860    0.5450 c3        1 1Y9      0.181600
     14 O14         3.1450    4.1210    1.8130 oh        1 1Y9     -0.598800
     15 C15         1.6960    1.5870   -0.5690 c3        1 1Y9     -0.050200
     16 H1         -0.2100   -0.9680   -0.0870 ho        1 1Y9      0.425000
     17 H2          1.9940   -0.6020   -0.6570 h1        1 1Y9      0.041700
     18 H3          0.3920    0.4530    3.1720 h4        1 1Y9      0.009200
     19 H6          3.6950   -0.7310    1.0400 hc        1 1Y9      0.059200
     20 H7          2.3930   -1.9620    1.3180 hc        1 1Y9      0.059200
     21 H8          2.8850   -0.2630    3.7550 ha        1 1Y9      0.124000
     22 H9          4.0070   -3.1150    5.4410 hc        1 1Y9      0.042867
     23 H10         3.9450   -1.3070    5.5780 hc        1 1Y9      0.042867
     24 H11         5.4800   -2.1270    5.0670 hc        1 1Y9      0.042867
     25 H12         5.1650   -3.8440    3.2320 hc        1 1Y9      0.042867
     26 H13         4.8840   -2.8130    1.7650 hc        1 1Y9      0.042867
     27 H14         3.5470   -3.8490    2.4110 hc        1 1Y9      0.042867
     28 H15         2.6010    1.7430    2.7270 ha        1 1Y9      0.157000
     29 H18         3.4950    3.7790   -0.2180 h1        1 1Y9      0.034200
     30 H19         1.8050    4.3280    0.2220 h1        1 1Y9      0.034200
     31 H20         3.3970    5.0450    1.7040 ho        1 1Y9      0.403000
     32 H21         2.4480    1.5670   -1.3950 hc        1 1Y9      0.068700
     33 H22         0.7690    2.0910   -0.9430 hc        1 1Y9      0.068700
@<TRIPOS>BOND
     1    1    2 1   
     2    1   16 1   
     3    2    3 1   
     4    2   15 1   
     5    2   17 1   
     6    3    4 1   
     7    3    6 1   
     8    3   11 1   
     9    4    5 2   
    10    4   18 1   
    11    6    7 1   
    12    6   19 1   
    13    6   20 1   
    14    7    8 2   
    15    7   21 1   
    16    8    9 1   
    17    8   10 1   
    18    9   22 1   
    19    9   23 1   
    20    9   24 1   
    21   10   25 1   
    22   10   26 1   
    23   10   27 1   
    24   11   12 2   
    25   11   28 1   
    26   12   13 1   
    27   12   15 1   
    28   13   14 1   
    29   13   29 1   
    30   13   30 1   
    31   14   31 1   
    32   15   32 1   
    33   15   33 1   
@<TRIPOS>SUBSTRUCTURE
     1 1Y9         1 TEMP              0 ****  ****    0 ROOT
