@<TRIPOS>MOLECULE
1YA
   58    60     1     0     0
SMALL
bcc


@<TRIPOS>ATOM
      1 N1          0.3400   -2.2760    2.5020 nh        1 1YA     -0.679000
      2 C2          1.1690   -2.0030    3.7040 c3        1 1YA      0.585100
      3 NA2         2.3520   -1.1880    3.4120 n3        1 1YA     -0.962800
      4 N3          0.3560   -1.5070    4.8340 n         1 1YA     -0.597900
      5 C4         -0.8430   -0.8580    4.6720 c         1 1YA      0.736700
      6 O4         -1.4680   -0.4290    5.6710 o         1 1YA     -0.708500
      7 C4A        -1.3410   -0.6950    3.2720 ce        1 1YA     -0.045200
      8 N5         -2.5190    0.0290    3.0740 nh        1 1YA     -0.715000
      9 C6         -3.0100    0.1950    1.7210 c3        1 1YA      0.100200
     10 C7         -2.0570   -0.3270    0.6620 c2        1 1YA      0.396200
     11 N8         -0.9990   -1.0350    0.8740 nf        1 1YA     -0.531300
     12 C8A        -0.6550   -1.3100    2.2270 cf        1 1YA      0.216600
     13 C9         -4.3900   -0.5150    1.5240 c3        1 1YA      0.180800
     14 N10        -4.3980   -1.9060    1.8910 nh        1 1YA     -0.698000
     15 C11        -5.0650   -3.2720    6.0540 ce        1 1YA     -0.330200
     16 C12        -5.6040   -2.1660    5.4160 cf        1 1YA      0.135000
     17 C13        -5.3810   -1.6900    4.1210 cf        1 1YA     -0.344000
     18 C14        -4.7260   -2.3790    3.1090 c2        1 1YA      0.237000
     19 C15        -4.3990   -5.4950    5.2100 c2        1 1YA     -0.215000
     20 C16        -4.1410   -4.2030    5.4230 ce        1 1YA     -0.148000
     21 N          -4.5190   -4.3950    8.2510 n4        1 1YA     -0.682800
     22 CA         -3.6080   -3.6340    9.1640 c3        1 1YA      0.078500
     23 CB         -3.0730   -4.4840   10.3230 c3        1 1YA     -0.102400
     24 CG         -4.1710   -4.9530   11.2230 cx        1 1YA     -0.006900
     25 CD         -4.1860   -6.3100   11.7510 c         1 1YA      0.735600
     26 OE1        -5.0040   -6.0490   10.6670 os        1 1YA     -0.468900
     27 OE2        -3.9690   -7.2930   12.4030 o         1 1YA     -0.426500
     28 CT         -2.4010   -3.1140    8.3790 c         1 1YA      0.637100
     29 O2         -2.2110   -1.7840    8.5720 os        1 1YA     -0.490200
     30 O1         -1.7040   -3.7810    7.6240 o         1 1YA     -0.465000
     31 C18        -1.0900   -1.0950    8.0950 c         1 1YA      0.702900
     32 O5         -0.0870   -1.7380    7.8460 o         1 1YA     -0.479000
     33 O          -6.2760   -2.8960    8.1220 o         1 1YA     -0.501100
     34 H1          1.5610   -3.0320    4.0150 h3        1 1YA      0.100700
     35 H2          3.0190   -1.2220    4.1540 hn        1 1YA      0.378800
     36 H3          0.6890   -1.6910    5.7550 hn        1 1YA      0.352500
     37 H5         -1.3300   -0.0170    8.0530 h5        1 1YA      0.136200
     38 H7         -2.6260    0.8190    3.6760 hn        1 1YA      0.433800
     39 H8         -3.2050    1.2920    1.5100 h1        1 1YA      0.078700
     40 H9         -2.2910   -0.0490   -0.3840 h4        1 1YA      0.050800
     41 H10        -4.6550   -0.4400    0.4300 h1        1 1YA      0.080200
     42 H11        -5.1680    0.0410    2.1160 h1        1 1YA      0.080200
     43 H12        -5.7530   -0.6680    3.9280 ha        1 1YA      0.153000
     44 H13        -6.2730   -1.5230    6.0330 ha        1 1YA      0.150000
     45 H14        -5.3530   -5.9700    5.4780 ha        1 1YA      0.131000
     46 H15        -3.6670   -6.1600    4.7290 ha        1 1YA      0.131000
     47 H16        -3.9600   -4.9810    7.6160 hn        1 1YA      0.470800
     48 H17        -5.1300   -4.9980    8.8170 hn        1 1YA      0.470800
     49 H18        -4.2000   -2.7570    9.5760 hx        1 1YA      0.147700
     50 H19        -2.4790   -5.3500    9.9220 hc        1 1YA      0.110200
     51 H20        -2.3690   -3.8400   10.9220 hc        1 1YA      0.110200
     52 H21        -4.7630   -4.1550   11.7200 h1        1 1YA      0.137700
     53 H24        -4.4890   -3.4600    3.2540 h4        1 1YA      0.160000
     54 H4          0.9130   -2.5090    1.7090 hn        1 1YA      0.437800
     55 HA23        2.1480   -0.2430    3.1640 hn        1 1YA      0.378800
     56 H101       -3.9100   -2.5190    1.2720 hn        1 1YA      0.451800
     57 HN3        -3.1740   -3.7580    5.1170 ha        1 1YA      0.148000
     58 C17        -5.4040   -3.4330    7.4400 c         1 1YA      0.574300
@<TRIPOS>BOND
     1    1    2 1   
     2    1   12 1   
     3    1   54 1   
     4    2    3 1   
     5    2    4 1   
     6    2   34 1   
     7    3   35 1   
     8    3   55 1   
     9    4    5 1   
    10    4   36 1   
    11    5    6 2   
    12    5    7 1   
    13    7    8 1   
    14    7   12 2   
    15    8    9 1   
    16    8   38 1   
    17    9   10 1   
    18    9   13 1   
    19    9   39 1   
    20   10   11 2   
    21   10   40 1   
    22   11   12 1   
    23   13   14 1   
    24   13   41 1   
    25   13   42 1   
    26   14   18 1   
    27   14   56 1   
    28   15   16 2   
    29   15   20 1   
    30   15   58 1   
    31   16   17 1   
    32   16   44 1   
    33   17   18 2   
    34   17   43 1   
    35   18   53 1   
    36   19   20 2   
    37   19   45 1   
    38   19   46 1   
    39   20   57 1   
    40   21   22 1   
    41   21   47 1   
    42   21   48 1   
    43   21   58 1   
    44   22   23 1   
    45   22   28 1   
    46   22   49 1   
    47   23   24 1   
    48   23   50 1   
    49   23   51 1   
    50   24   25 1   
    51   24   26 1   
    52   24   52 1   
    53   25   26 1   
    54   25   27 2   
    55   28   29 1   
    56   28   30 2   
    57   29   31 1   
    58   31   32 2   
    59   31   37 1   
    60   33   58 2   
@<TRIPOS>SUBSTRUCTURE
     1 1YA         1 TEMP              0 ****  ****    0 ROOT
