@<TRIPOS>MOLECULE
molecule
   56    58     1     0     0
SMALL
bcc


@<TRIPOS>ATOM
      1 N1           0.0000     0.0000     0.0000 nc         1 1YA      -0.602300
      2 C2           1.3160     0.0000     0.0000 cd         1 1YA       0.287800
      3 NA2          1.9860     0.0000    -1.1980 nz         1 1YA      -0.689600
      4 N3           2.0300     0.0000     1.1590 ns         1 1YA      -0.451400
      5 C4           1.3910     0.0020     2.3490 c          1 1YA       0.697700
      6 O4           2.0210     0.0040     3.3970 o          1 1YA      -0.611500
      7 C4A         -0.0090     0.0020     2.3560 cd         1 1YA       0.003800
      8 N5          -0.7250     0.0070     3.5730 nu         1 1YA      -0.734000
      9 C6          -2.1530    -0.3470     3.5470 c3         1 1YA       0.171500
     10 C7          -2.8000     0.3750     2.3560 c3         1 1YA       0.200800
     11 N8          -2.0750    -0.0040     1.1360 nu         1 1YA      -0.770000
     12 C8A         -0.6880    -0.0010     1.1470 cc         1 1YA       0.305600
     13 C9          -2.3090    -1.8590     3.3810 c3         1 1YA       0.092000
     14 N10         -1.5600    -2.5460     4.4360 n          1 1YA      -0.406000
     15 C11         -3.4170    -3.4560     8.0530 ca         1 1YA      -0.096600
     16 C12         -2.3920    -2.5060     8.0100 ca         1 1YA      -0.082500
     17 C13         -1.7810    -2.2080     6.8140 ca         1 1YA      -0.141500
     18 C14         -2.1810    -2.8510     5.6470 ca         1 1YA       0.014600
     19 C15         -3.2010    -3.7970     5.6860 ca         1 1YA      -0.141500
     20 C16         -3.8140    -4.1040     6.8800 ca         1 1YA      -0.082500
     21 N           -5.0620    -4.6930     9.3730 ns         1 1YA      -0.521900
     22 CA          -5.7160    -5.0130    10.6450 c3         1 1YA       0.076700
     23 CB          -7.1240    -5.5470    10.3760 c3         1 1YA      -0.197400
     24 CG          -7.9770    -4.4420     9.7490 c3         1 1YA      -0.145400
     25 CD          -9.3640    -4.9670     9.4830 c          1 1YA       0.891600
     26 OE1        -10.2910    -4.1670     8.9330 o          1 1YA      -0.824300
     27 OE2         -9.6420    -6.1090     9.7660 o          1 1YA      -0.824300
     28 CT          -4.9120    -6.0600    11.3730 c          1 1YA       0.888600
     29 O2          -5.3230    -6.5090    12.5700 o          1 1YA      -0.800300
     30 O1          -3.8990    -6.4950    10.8800 o          1 1YA      -0.800300
     31 C18         -0.2710    -2.8850     4.2370 c          1 1YA       0.657900
     32 O5           0.3230    -3.5310     5.0740 o          1 1YA      -0.568100
     33 O           -3.7250    -3.2160    10.3550 o          1 1YA      -0.626100
     34 H1           1.3250     0.0250    -1.9490 hn         1 1YA       0.448467
     35 H2           2.5410    -0.8290    -1.2700 hn         1 1YA       0.448467
     36 H3           3.0300    -0.0000     1.1300 hn         1 1YA       0.329500
     37 H5          -0.2720     0.2460     4.4330 hn         1 1YA       0.478800
     38 H7          -2.6250    -0.0250     4.4670 h1         1 1YA       0.099700
     39 H8          -3.1260     1.2060     2.9700 h1         1 1YA       0.073700
     40 H9          -3.7360    -0.1440     2.1910 h1         1 1YA       0.073700
     41 H10         -3.3570    -2.1240     3.4510 h1         1 1YA       0.064200
     42 H11         -1.9250    -2.1580     2.4130 h1         1 1YA       0.064200
     43 H12         -2.0810    -2.0030     8.9180 ha         1 1YA       0.158500
     44 H13         -0.9870    -1.4720     6.7810 ha         1 1YA       0.122000
     45 H14         -3.5080    -4.2990     4.7760 ha         1 1YA       0.122000
     46 H15         -4.6080    -4.8400     6.9090 ha         1 1YA       0.158500
     47 H16         -5.3280    -5.1780     8.5390 hn         1 1YA       0.313500
     48 H17         -5.7790    -4.1190    11.2540 h1         1 1YA       0.053700
     49 H18         -6.9700    -4.7550    11.0980 hc         1 1YA       0.105200
     50 H19         -7.5750    -6.3270    10.9770 hc         1 1YA       0.105200
     51 H20         -8.0330    -3.6000    10.4290 hc         1 1YA       0.020200
     52 H21         -7.5270    -4.1230     8.8170 hc         1 1YA       0.020200
     53 H24          0.2180    -2.6250     3.3060 h5         1 1YA       0.002200
     54 H4          -2.5750    -0.2610     0.3080 hn         1 1YA       0.462800
     55 HA23         2.5730     0.8090    -1.2520 hn         1 1YA       0.448467
     56 C17         -4.0740    -3.7770     9.3340 c          1 1YA       0.654700
@<TRIPOS>BOND
     1    10    11 1   
     2    10     9 1   
     3    11    12 1   
     4    32    31 2   
     5     9     8 1   
     6     9    13 1   
     7    31    14 1   
     8    19    20 ar  
     9    19    18 ar  
    10    20    15 ar  
    11    14    18 1   
    12    14    13 1   
    13     8     7 1   
    14    12     7 2   
    15    12     1 1   
    16    18    17 ar  
    17     7     5 1   
    18     1     2 2   
    19    15    56 1   
    20    15    16 ar  
    21    17    16 ar  
    22     2     4 1   
    23     2     3 1   
    24     5     4 1   
    25     5     6 2   
    26    33    56 2   
    27    56    21 1   
    28    21    22 1   
    29    22    28 1   
    30    22    23 1   
    31    28    29 1   
    32    28    30 1   
    33    24    23 1   
    34    24    25 1   
    35    27    25 1   
    36    25    26 1   
    37     3    34 1   
    38     3    35 1   
    39     4    36 1   
    40     8    37 1   
    41     9    38 1   
    42    10    39 1   
    43    10    40 1   
    44    13    41 1   
    45    13    42 1   
    46    16    43 1   
    47    17    44 1   
    48    19    45 1   
    49    20    46 1   
    50    21    47 1   
    51    22    48 1   
    52    23    49 1   
    53    23    50 1   
    54    24    51 1   
    55    24    52 1   
    56    31    53 1   
    57    11    54 1   
    58    55     3 1   
@<TRIPOS>SUBSTRUCTURE
     1 1YA         1 TEMP              0 ****  ****    0 ROOT
