@<TRIPOS>MOLECULE
1YE
   34    36     1     0     0
SMALL
bcc


@<TRIPOS>ATOM
      1 OAD        -0.0250   -0.3920    0.0620 o         1 1YE     -0.581100
      2 CAQ         1.2080   -0.2360    0.0680 c         1 1YE      0.608300
      3 CAS         1.9700   -0.0970    1.3190 ca        1 1YE     -0.228600
      4 CAJ         1.3290   -0.1880    2.5640 ca        1 1YE     -0.053000
      5 CAH         2.0550   -0.0660    3.7380 ca        1 1YE     -0.183000
      6 CAN         3.4430    0.1450    3.7030 ca        1 1YE     -0.038300
      7 CAA         4.2010    0.2610    4.9720 c3        1 1YE     -0.053800
      8 CAO         4.1130    0.2380    2.4790 ca        1 1YE     -0.108300
      9 CAB         5.5770    0.4550    2.4210 c3        1 1YE     -0.050800
     10 CAT         3.3560    0.1220    1.2870 ca        1 1YE      0.174100
     11 OAL         4.0770    0.2520    0.1200 os        1 1YE     -0.207200
     12 CAU         3.4040    0.0520   -1.0810 ca        1 1YE      0.122100
     13 CAR         2.0200   -0.1770   -1.1490 ca        1 1YE     -0.230600
     14 CAI         1.4280   -0.3550   -2.4100 ca        1 1YE     -0.080000
     15 CAF         2.2080   -0.3060   -3.5570 ca        1 1YE     -0.172000
     16 CAG         3.5840   -0.0770   -3.4730 ca        1 1YE     -0.076000
     17 CAP         4.2140    0.1110   -2.2390 ca        1 1YE     -0.034300
     18 CAK         5.6670    0.3840   -2.1520 c3        1 1YE     -0.174100
     19 CAM         6.5270   -0.4390   -3.1420 c         1 1YE      0.917600
     20 OAE         7.4050   -1.1970   -2.6490 o         1 1YE     -0.836800
     21 OAC         6.3370   -0.2780   -4.3820 o         1 1YE     -0.836800
     22 H1          0.2410   -0.3580    2.5820 ha        1 1YE      0.149000
     23 H2          1.5430   -0.1370    4.7090 ha        1 1YE      0.126000
     24 H3          3.5140    0.3190    5.8520 hc        1 1YE      0.042700
     25 H4          4.8690   -0.6280    5.1010 hc        1 1YE      0.042700
     26 H5          4.8430    1.1780    4.9600 hc        1 1YE      0.042700
     27 H6          5.8200    1.5060    2.7180 hc        1 1YE      0.052367
     28 H7          5.9760    0.2770    1.3900 hc        1 1YE      0.052367
     29 H8          6.1010   -0.2380    3.1270 hc        1 1YE      0.052367
     30 H9          0.3440   -0.5340   -2.4620 ha        1 1YE      0.138000
     31 H10         1.7440   -0.4550   -4.5430 ha        1 1YE      0.125000
     32 H11         4.2220   -0.0610   -4.3820 ha        1 1YE      0.206000
     33 H12         6.0400    0.1870   -1.1130 hc        1 1YE      0.048200
     34 H13         5.8410    1.4680   -2.3860 hc        1 1YE      0.048200
@<TRIPOS>BOND
     1    1    2 2   
     2    2    3 1   
     3    2   13 1   
     4    3    4 ar  
     5    3   10 ar  
     6    4    5 ar  
     7    4   22 1   
     8    5    6 ar  
     9    5   23 1   
    10    6    7 1   
    11    6    8 ar  
    12    7   24 1   
    13    7   25 1   
    14    7   26 1   
    15    8    9 1   
    16    8   10 ar  
    17    9   27 1   
    18    9   28 1   
    19    9   29 1   
    20   10   11 1   
    21   11   12 1   
    22   12   13 ar  
    23   12   17 ar  
    24   13   14 ar  
    25   14   15 ar  
    26   14   30 1   
    27   15   16 ar  
    28   15   31 1   
    29   16   17 ar  
    30   16   32 1   
    31   17   18 1   
    32   18   19 1   
    33   18   33 1   
    34   18   34 1   
    35   19   20 1   
    36   19   21 1   
@<TRIPOS>SUBSTRUCTURE
     1 1YE         1 TEMP              0 ****  ****    0 ROOT
