@<TRIPOS>MOLECULE
1YE
   34    36     1     0     0
SMALL
bcc


@<TRIPOS>ATOM
      1 OAD         -0.1150     0.1050     0.0860 o          1 1YE      -0.583100
      2 CAQ          1.1270     0.0860     0.0410 c          1 1YE       0.609300
      3 CAS          1.9610     0.1220     1.2510 ca         1 1YE      -0.230600
      4 CAJ          1.3950     0.0180     2.5310 ca         1 1YE      -0.061000
      5 CAH          2.2040     0.0040     3.6550 ca         1 1YE      -0.181000
      6 CAN          3.6050     0.0710     3.5370 ca         1 1YE      -0.046300
      7 CAA          4.4420     0.0190     4.7590 c3         1 1YE      -0.050800
      8 CAO          4.2030     0.1700     2.2780 ca         1 1YE      -0.081300
      9 CAB          5.6710     0.1960     2.0880 c3         1 1YE      -0.077800
     10 CAT          3.3550     0.2260     1.1430 ca         1 1YE       0.167100
     11 OAL          4.0050     0.4160    -0.0580 os         1 1YE      -0.183200
     12 CAU          3.2790     0.1570    -1.2110 ca         1 1YE       0.137100
     13 CAR          1.8840     0.0100    -1.2130 ca         1 1YE      -0.223600
     14 CAI          1.2350    -0.2340    -2.4360 ca         1 1YE      -0.085000
     15 CAF          1.9730    -0.3340    -3.6050 ca         1 1YE      -0.168000
     16 CAG          3.3640    -0.1800    -3.5850 ca         1 1YE      -0.095000
     17 CAP          4.0490     0.0810    -2.3980 ca         1 1YE      -0.020300
     18 CAK          5.5150     0.2670    -2.3720 c3         1 1YE      -0.181100
     19 CAM          6.2790    -1.0460    -2.0330 c          1 1YE       0.925600
     20 OAE          6.4980    -1.8510    -2.9770 o          1 1YE      -0.830800
     21 OAC          6.6660    -1.1990    -0.8420 o          1 1YE      -0.830800
     22 H1           0.2990    -0.0550     2.6170 ha         1 1YE       0.144000
     23 H2           1.7520    -0.0720     4.6540 ha         1 1YE       0.122000
     24 H3           5.2050     0.8380     4.7440 hc         1 1YE       0.041700
     25 H4           3.8220     0.1260     5.6820 hc         1 1YE       0.041700
     26 H5           4.9850    -0.9590     4.8090 hc         1 1YE       0.041700
     27 H6           5.9540    -0.2260     1.0780 hc         1 1YE       0.068367
     28 H7           6.0450     1.2490     2.1430 hc         1 1YE       0.068367
     29 H8           6.1850    -0.4050     2.8770 hc         1 1YE       0.068367
     30 H9           0.1410    -0.3480    -2.4370 ha         1 1YE       0.139000
     31 H10          1.4650    -0.5420    -4.5580 ha         1 1YE       0.120000
     32 H11          3.9430    -0.2860    -4.5160 ha         1 1YE       0.146000
     33 H12          5.8730     0.6210    -3.3720 hc         1 1YE       0.044700
     34 H13          5.7880     1.0290    -1.5970 hc         1 1YE       0.044700
@<TRIPOS>BOND
     1     1     2 2   
     2     2     3 1   
     3     2    13 1   
     4     3     4 ar  
     5     3    10 ar  
     6     4     5 ar  
     7     4    22 1   
     8     5     6 ar  
     9     5    23 1   
    10     6     7 1   
    11     6     8 ar  
    12     7    24 1   
    13     7    25 1   
    14     7    26 1   
    15     8     9 1   
    16     8    10 ar  
    17     9    27 1   
    18     9    28 1   
    19     9    29 1   
    20    10    11 1   
    21    11    12 1   
    22    12    13 ar  
    23    12    17 ar  
    24    13    14 ar  
    25    14    15 ar  
    26    14    30 1   
    27    15    16 ar  
    28    15    31 1   
    29    16    17 ar  
    30    16    32 1   
    31    17    18 1   
    32    18    19 1   
    33    18    33 1   
    34    18    34 1   
    35    19    20 1   
    36    19    21 1   
@<TRIPOS>SUBSTRUCTURE
     1 1YE         1 TEMP              0 ****  ****    0 ROOT
