@<TRIPOS>MOLECULE
molecule
   34    36     1     0     0
SMALL
bcc


@<TRIPOS>ATOM
      1 OAD          0.0000     0.0000     0.0000 o          1 1YE      -0.567100
      2 CAQ          1.2170     0.0000     0.0000 c          1 1YE       0.605300
      3 CAS          2.0030     0.0000     1.2530 ca         1 1YE      -0.242600
      4 CAJ          1.3990    -0.2670     2.4800 ca         1 1YE      -0.051000
      5 CAH          2.1620    -0.2640     3.6280 ca         1 1YE      -0.182000
      6 CAN          3.5220     0.0000     3.5590 ca         1 1YE      -0.041300
      7 CAA          4.3460    -0.0030     4.8210 c3         1 1YE      -0.046800
      8 CAO          4.1290     0.2670     2.3510 ca         1 1YE      -0.106300
      9 CAB          5.6080     0.5530     2.2980 c3         1 1YE      -0.043800
     10 CAT          3.3780     0.2740     1.1790 ca         1 1YE       0.195100
     11 OAL          3.9720     0.5460    -0.0000 os         1 1YE      -0.195200
     12 CAU          3.3770     0.2770    -1.1790 ca         1 1YE       0.170100
     13 CAR          2.0030    -0.0060    -1.2530 ca         1 1YE      -0.235600
     14 CAI          1.4000    -0.2750    -2.4790 ca         1 1YE      -0.075000
     15 CAF          2.1630    -0.2690    -3.6280 ca         1 1YE      -0.170000
     16 CAG          3.5200     0.0060    -3.5600 ca         1 1YE      -0.079000
     17 CAP          4.1290     0.2650    -2.3490 ca         1 1YE      -0.025300
     18 CAK          5.6060     0.5610    -2.2990 c3         1 1YE      -0.150100
     19 CAM          6.3630    -0.7070    -2.0010 c          1 1YE       0.894600
     20 OAE          7.7020    -0.6840    -1.9080 o          1 1YE      -0.841800
     21 OAC          5.7650    -1.7460    -1.8450 o          1 1YE      -0.841800
     22 H1           0.3370    -0.4730     2.5320 ha         1 1YE       0.142000
     23 H2           1.6970    -0.4630     4.5870 ha         1 1YE       0.123000
     24 H3           5.1780    -0.6880     4.7070 hc         1 1YE       0.041367
     25 H4           4.7230     0.9950     5.0090 hc         1 1YE       0.041367
     26 H5           3.7300    -0.3190     5.6540 hc         1 1YE       0.041367
     27 H6           5.9410     0.9100     3.2650 hc         1 1YE       0.053033
     28 H7           6.1420    -0.3540     2.0440 hc         1 1YE       0.053033
     29 H8           5.8020     1.3090     1.5470 hc         1 1YE       0.053033
     30 H9           0.3400    -0.4890    -2.5300 ha         1 1YE       0.135000
     31 H10          1.6990    -0.4700    -4.5860 ha         1 1YE       0.118000
     32 H11          4.1110     0.0080    -4.4670 ha         1 1YE       0.136000
     33 H12          5.8020     1.2890    -1.5210 hc         1 1YE       0.046200
     34 H13          5.9280     0.9570    -3.2540 hc         1 1YE       0.046200
@<TRIPOS>BOND
     1    16    15 ar  
     2    16    17 ar  
     3    18    19 1   
     4    18    17 1   
     5    15    14 ar  
     6    19    21 1   
     7    19    20 1   
     8    17    12 ar  
     9    14    13 ar  
    10    12    13 ar  
    11    12    11 1   
    12    13     2 1   
    13    11    10 1   
    14     2     1 2   
    15     2     3 1   
    16    10     3 ar  
    17    10     8 ar  
    18     9     8 1   
    19     3     4 ar  
    20     8     6 ar  
    21     4     5 ar  
    22     6     5 ar  
    23     6     7 1   
    24     4    22 1   
    25     5    23 1   
    26     7    24 1   
    27     7    25 1   
    28     7    26 1   
    29     9    27 1   
    30     9    28 1   
    31     9    29 1   
    32    14    30 1   
    33    15    31 1   
    34    16    32 1   
    35    18    33 1   
    36    18    34 1   
@<TRIPOS>SUBSTRUCTURE
     1 1YE         1 TEMP              0 ****  ****    0 ROOT
