@<TRIPOS>MOLECULE
1YG
   50    52     1     0     0
SMALL
bcc


@<TRIPOS>ATOM
      1 C5         -0.2210   -0.1850    1.3450 cc        1 1YG      0.170700
      2 C7          0.3580   -1.1170    0.4910 cd        1 1YG      0.227900
      3 C8         -0.8430    1.1510    1.1760 c3        1 1YG     -0.076300
      4 C9          1.9070   -1.2030    5.6200 cc        1 1YG     -0.264500
      5 C10        -0.8030    1.5430   -0.2960 c3        1 1YG     -0.089100
      6 C11        -2.2910    1.1050    1.6520 c3        1 1YG     -0.089100
      7 C12        -0.0720    2.1810    1.9980 c3        1 1YG     -0.089100
      8 C14         1.4810    0.1110    5.3880 cd        1 1YG      0.415200
      9 C15         1.7340    0.2060    7.5960 cc        1 1YG      0.488300
     10 N4          0.7890   -2.2250    1.2300 nd        1 1YG     -0.653000
     11 C1          0.4790   -1.9630    2.5020 cc        1 1YG      0.483700
     12 O2         -0.1570   -0.7100    2.6430 os        1 1YG     -0.384800
     13 C3          0.6790   -2.7380    3.7380 c3        1 1YG     -0.077600
     14 S6          2.2280   -2.3980    4.5220 ss        1 1YG     -0.081000
     15 N16         1.3680    0.9170    6.4850 nd        1 1YG     -0.702000
     16 N17         1.7730    0.7810    8.8630 n         1 1YG     -0.519400
     17 C18         1.9990    0.0570   10.0270 c         1 1YG      0.660100
     18 O20         2.2460   -1.1630    9.9910 o         1 1YG     -0.583100
     19 C19         1.9760    0.8250   11.3490 c3        1 1YG     -0.079400
     20 C22         3.2840    1.5710   11.5180 c3        1 1YG     -0.094100
     21 C21         0.7720    1.7030   11.4600 ca        1 1YG     -0.102300
     22 C24         0.7830    3.0300   11.0150 ca        1 1YG     -0.123000
     23 C26        -0.3560    3.8250   11.1420 ca        1 1YG     -0.124500
     24 C27        -1.5160    3.3020   11.7130 ca        1 1YG     -0.120000
     25 C25        -1.5330    1.9810   12.1610 ca        1 1YG     -0.124500
     26 C23        -0.3960    1.1850   12.0370 ca        1 1YG     -0.123000
     27 S13         2.1670   -1.4230    7.2630 ss        1 1YG      0.063700
     28 H1          0.4950   -1.0720   -0.5890 h4        1 1YG      0.052100
     29 H2         -1.3650    0.8010   -0.9120 hc        1 1YG      0.043700
     30 H3         -1.2700    2.5480   -0.4290 hc        1 1YG      0.043700
     31 H4          0.2510    1.5850   -0.6600 hc        1 1YG      0.043700
     32 H5         -2.7550    2.1150    1.5520 hc        1 1YG      0.043700
     33 H6         -2.8780    0.3780    1.0420 hc        1 1YG      0.043700
     34 H7         -2.3320    0.7910    2.7230 hc        1 1YG      0.043700
     35 H8         -0.5520    3.1830    1.8940 hc        1 1YG      0.043700
     36 H9          0.9840    2.2480    1.6450 hc        1 1YG      0.043700
     37 H10        -0.0730    1.8880    3.0760 hc        1 1YG      0.043700
     38 H11         1.2160    0.5220    4.4020 h4        1 1YG      0.055100
     39 H12         0.7150   -3.8320    3.4870 h1        1 1YG      0.106200
     40 H13        -0.1800   -2.5560    4.4310 h1        1 1YG      0.106200
     41 H14         1.5090    1.7420    8.9440 hn        1 1YG      0.345500
     42 H15         1.9180    0.0340   12.1550 hc        1 1YG      0.096700
     43 H16         4.1290    0.8430   11.5840 hc        1 1YG      0.050700
     44 H17         3.4790    2.2590   10.6610 hc        1 1YG      0.050700
     45 H18         3.2550    2.1740   12.4580 hc        1 1YG      0.050700
     46 H19         1.6940    3.4590   10.5720 ha        1 1YG      0.136500
     47 H20        -0.3370    4.8670   10.7880 ha        1 1YG      0.137500
     48 H21        -2.4140    3.9300   11.8110 ha        1 1YG      0.137000
     49 H22        -2.4450    1.5650   12.6140 ha        1 1YG      0.137500
     50 H23        -0.4150    0.1440   12.3930 ha        1 1YG      0.136500
@<TRIPOS>BOND
     1    1    2 2
     2    1    3 1
     3    1   12 1
     4    2   10 1
     5    2   28 1
     6    3    5 1
     7    3    6 1
     8    3    7 1
     9    4    8 2
    10    4   14 1
    11    4   27 1
    12    5   29 1
    13    5   30 1
    14    5   31 1
    15    6   32 1
    16    6   33 1
    17    6   34 1
    18    7   35 1
    19    7   36 1
    20    7   37 1
    21    8   15 1
    22    8   38 1
    23    9   15 2
    24    9   16 1
    25    9   27 1
    26   10   11 2
    27   11   12 1
    28   11   13 1
    29   13   14 1
    30   13   39 1
    31   13   40 1
    32   16   17 1
    33   16   41 1
    34   17   18 2
    35   17   19 1
    36   19   20 1
    37   19   21 1
    38   19   42 1
    39   20   43 1
    40   20   44 1
    41   20   45 1
    42   21   22 ar
    43   21   26 ar
    44   22   23 ar
    45   22   46 1
    46   23   24 ar
    47   23   47 1
    48   24   25 ar
    49   24   48 1
    50   25   26 ar
    51   25   49 1
    52   26   50 1
@<TRIPOS>SUBSTRUCTURE
     1 1YG         1 TEMP              0 ****  ****    0 ROOT
