@<TRIPOS>MOLECULE
1YJ
   55    57     1     0     0
SMALL
bcc


@<TRIPOS>ATOM
      1 N3          -1.2480    -1.1530     0.4120 ns         1 1YJ      -0.490400
      2 C2          -0.3790    -0.4400    -0.4310 cc         1 1YJ       0.675800
      3 N1           0.5860     0.3820     0.0230 nd         1 1YJ      -0.700300
      4 C8A          0.6870     0.5720     1.4030 cd         1 1YJ       0.361600
      5 C4A         -0.1030    -0.1450     2.3190 cc         1 1YJ      -0.166200
      6 C4          -1.1650    -1.0160     1.8120 c          1 1YJ       0.715700
      7 N8           1.5620     1.5730     1.8660 nu         1 1YJ      -0.719000
      8 C7           1.9560     1.4940     3.2550 c3         1 1YJ       0.184800
      9 C6           0.7970     1.0760     4.1950 c3         1 1YJ       0.145500
     10 N5           0.1500    -0.1340     3.7130 nu         1 1YJ      -0.654000
     11 C9          -0.1750     2.2730     4.4240 c3         1 1YJ       0.170800
     12 N10          0.3010     3.2810     5.3230 nu         1 1YJ      -0.752600
     13 C4'          0.9970     4.4120     4.9470 ca         1 1YJ       0.233600
     14 C3'          1.5850     5.2290     5.9570 ca         1 1YJ      -0.222000
     15 C2'          2.2130     6.4160     5.6300 ca         1 1YJ      -0.023500
     16 C1'          2.2770     6.8460     4.2950 ca         1 1YJ      -0.260600
     17 C6'          1.7320     6.0400     3.2860 ca         1 1YJ      -0.023500
     18 C5'          1.1100     4.8430     3.5980 ca         1 1YJ      -0.222000
     19 C11          2.9530     8.1150     4.0030 c          1 1YJ       0.580700
     20 N            2.2530     8.9900     3.0180 ny         1 1YJ      -0.661800
     21 CA           2.8770    10.3190     2.7400 c3         1 1YJ      -0.073500
     22 C            1.7760    11.4760     2.9490 c          1 1YJ       0.936600
     23 OX2          0.6600    11.0800     3.3750 o          1 1YJ      -0.761300
     24 OX1          2.1670    12.6230     2.6750 o          1 1YJ      -0.761300
     25 CB           3.4440    10.4480     1.3380 c3         1 1YJ      -0.087400
     26 CG           4.6730     9.6030     1.0780 c3         1 1YJ      -0.147400
     27 CD           4.3340     8.2620     0.5110 c          1 1YJ       0.652100
     28 OE1          3.3780     7.5160     0.7810 o          1 1YJ      -0.620000
     29 OE2          5.2100     7.8030    -0.4160 oh         1 1YJ      -0.586100
     30 O11          4.0010     8.5080     4.5100 o          1 1YJ      -0.472100
     31 O4          -1.9960    -1.6290     2.5100 o          1 1YJ      -0.640500
     32 N2          -0.5820    -0.5560    -1.8270 nv         1 1YJ      -0.887800
     33 H3           2.3170     2.5190     3.5530 h1         1 1YJ       0.054200
     34 H4           2.8060     0.7650     3.4010 h1         1 1YJ       0.054200
     35 H5           1.2610     0.7940     5.1880 h1         1 1YJ       0.070700
     36 H6          -0.6860    -0.3470     4.2300 hn         1 1YJ       0.399800
     37 H8          -0.4400     2.7290     3.4310 h1         1 1YJ       0.072700
     38 H9           1.5370     4.9230     7.0130 ha         1 1YJ       0.153000
     39 H10          2.6680     7.0360     6.4210 ha         1 1YJ       0.154500
     40 H11          1.8220     6.3300     2.2240 ha         1 1YJ       0.154500
     41 H12          0.7060     4.2290     2.7770 ha         1 1YJ       0.153000
     42 H13          1.2960     9.2090     3.4020 hn         1 1YJ       0.479300
     43 H14          3.6810    10.5100     3.5060 hx         1 1YJ       0.109700
     44 H16          3.7160    11.5380     1.2290 hc         1 1YJ       0.094700
     45 H17          2.6530    10.2320     0.5720 hc         1 1YJ       0.094700
     46 H18          5.2500     9.4350     2.0290 hc         1 1YJ       0.096200
     47 H19          5.3550    10.1340     0.3590 hc         1 1YJ       0.096200
     48 H21         -0.8230    -1.4690    -2.1450 hn         1 1YJ       0.419300
     49 H22          4.9300     6.9280    -0.7370 ho         1 1YJ       0.450000
     50 H23         -1.9890    -1.7060     0.0390 hn         1 1YJ       0.340500
     51 H1           2.3080     1.8140     1.2460 hn         1 1YJ       0.423800
     52 H2          -1.1310     1.8740     4.8780 h1         1 1YJ       0.072700
     53 H7           0.4150     2.9930     6.2700 hn         1 1YJ       0.428800
     54 H231         0.1140    -0.1050    -2.3830 hn         1 1YJ       0.419300
     55 HN3          2.1350     8.4680     2.1400 hn         1 1YJ       0.479300
@<TRIPOS>BOND
     1     1     2 1   
     2     1     6 1   
     3     1    50 1   
     4     2     3 2   
     5     2    32 1   
     6     3     4 1   
     7     4     5 2   
     8     4     7 1   
     9     5     6 1   
    10     5    10 1   
    11     6    31 2   
    12     7     8 1   
    13     7    51 1   
    14     8     9 1   
    15     8    33 1   
    16     8    34 1   
    17     9    10 1   
    18     9    11 1   
    19     9    35 1   
    20    10    36 1   
    21    11    12 1   
    22    11    37 1   
    23    11    52 1   
    24    12    13 1   
    25    12    53 1   
    26    13    14 ar  
    27    13    18 ar  
    28    14    15 ar  
    29    14    38 1   
    30    15    16 ar  
    31    15    39 1   
    32    16    17 ar  
    33    16    19 1   
    34    17    18 ar  
    35    17    40 1   
    36    18    41 1   
    37    19    20 1   
    38    19    30 2   
    39    20    21 1   
    40    20    42 1   
    41    20    55 1   
    42    21    22 1   
    43    21    25 1   
    44    21    43 1   
    45    22    23 1   
    46    22    24 1   
    47    25    26 1   
    48    25    44 1   
    49    25    45 1   
    50    26    27 1   
    51    26    46 1   
    52    26    47 1   
    53    27    28 2   
    54    27    29 1   
    55    29    49 1   
    56    32    48 1   
    57    32    54 1   
@<TRIPOS>SUBSTRUCTURE
     1 1YJ         1 TEMP              0 ****  ****    0 ROOT
