@<TRIPOS>MOLECULE
molecule
   54    56     1     0     0
SMALL
bcc


@<TRIPOS>ATOM
      1 N3           0.0000     0.0000     0.0000 ns         1 1YJ      -0.447400
      2 C2           1.3610     0.0000     0.0000 cc         1 1YJ       0.305800
      3 N1           2.0520     0.0000     1.1200 nc         1 1YJ      -0.607300
      4 C8A          1.4360     0.0010     2.3080 cc         1 1YJ       0.326600
      5 C4A          0.0490    -0.0020     2.3630 cd         1 1YJ       0.007800
      6 C4          -0.6780     0.0040     1.1680 c          1 1YJ       0.704700
      7 N8           2.1720     0.0030     3.4820 nu         1 1YJ      -0.803000
      8 C7           1.5140    -0.3810     4.7400 c3         1 1YJ       0.230800
      9 C6           0.1600     0.3390     4.8150 c3         1 1YJ       0.200500
     10 N5          -0.6110    -0.0070     3.6110 nu         1 1YJ      -0.753000
     11 C9           0.3800     1.8510     4.8650 c3         1 1YJ       0.231800
     12 N10         -0.9150     2.5360     4.8170 nu         1 1YJ      -0.837600
     13 C4'         -0.9690     3.9240     4.8490 ca         1 1YJ       0.185600
     14 C3'          0.2090     4.6640     4.9230 ca         1 1YJ      -0.221500
     15 C2'          0.1580     6.0390     4.9560 ca         1 1YJ      -0.046000
     16 C1'         -1.0760     6.6930     4.9150 ca         1 1YJ      -0.153600
     17 C6'         -2.2560     5.9470     4.8430 ca         1 1YJ      -0.046000
     18 C5'         -2.1990     4.5740     4.8040 ca         1 1YJ      -0.221500
     19 C11         -1.1330     8.1660     4.9510 c          1 1YJ       0.667700
     20 N           -2.3240     8.7960     4.9120 ns         1 1YJ      -0.521900
     21 CA          -2.3810    10.2590     4.9480 c3         1 1YJ       0.012700
     22 C           -2.3420    10.7290     6.3790 c          1 1YJ       0.890600
     23 OX2         -2.3840    12.0420     6.6550 o          1 1YJ      -0.807800
     24 OX1         -2.2740     9.9240     7.2770 o          1 1YJ      -0.807800
     25 CB          -3.6770    10.7360     4.2890 c3         1 1YJ      -0.064400
     26 CG          -3.6610    10.3660     2.8050 c3         1 1YJ      -0.177400
     27 CD          -4.9380    10.8360     2.1560 c          1 1YJ       0.888600
     28 OE1         -5.1450    10.6190     0.8480 o          1 1YJ      -0.825800
     29 OE2         -5.7750    11.4060     2.8140 o          1 1YJ      -0.825800
     30 O11         -0.1060     8.8140     5.0160 o          1 1YJ      -0.631100
     31 O4          -1.9000     0.0030     1.1810 o          1 1YJ      -0.618500
     32 N2           2.0300    -0.0010    -1.1980 nz         1 1YJ      -0.694600
     33 H3           1.3580    -1.4530     4.7560 h1         1 1YJ       0.062200
     34 H4           2.1310    -0.0850     5.5790 h1         1 1YJ       0.062200
     35 H5          -0.3780     0.0120     5.6980 h1         1 1YJ       0.083700
     36 H6          -1.5820    -0.2410     3.6750 hn         1 1YJ       0.470800
     37 H8           0.9820     2.1560     4.0180 h1         1 1YJ       0.048700
     38 H9           1.1660     4.1570     4.9540 ha         1 1YJ       0.115500
     39 H10          1.0730     6.6130     5.0460 ha         1 1YJ       0.152000
     40 H11         -3.2160     6.4490     4.8660 ha         1 1YJ       0.152000
     41 H12         -3.1130     3.9960     4.7380 ha         1 1YJ       0.115500
     42 H13         -3.1690     8.2640     4.8390 hn         1 1YJ       0.304500
     43 H14         -1.5320    10.6660     4.4110 h1         1 1YJ       0.076700
     44 H16         -3.7610    11.8110     4.3930 hc         1 1YJ       0.067700
     45 H17         -4.5230    10.2590     4.7700 hc         1 1YJ       0.067700
     46 H18         -2.8150    10.8430     2.3230 hc         1 1YJ       0.028200
     47 H19         -3.5770     9.2910     2.7010 hc         1 1YJ       0.028200
     48 H21          3.0160     0.0040    -1.0300 hn         1 1YJ       0.451467
     49 H22          1.7760     0.8130    -1.7230 hn         1 1YJ       0.451467
     50 H23         -0.4990    -0.0000    -0.8670 hn         1 1YJ       0.331500
     51 H1           3.1390     0.2610     3.4740 hn         1 1YJ       0.454800
     52 H2           0.8920     2.1110     5.7840 h1         1 1YJ       0.048700
     53 H7          -1.7610     2.0040     4.7620 hn         1 1YJ       0.431800
     54 H231         1.8250    -0.8460    -1.6940 hn         1 1YJ       0.451467
@<TRIPOS>BOND
     1     8     7 1
     2     8     9 1
     3     7     4 1
     4     9    10 1
     5     9    11 1
     6    12    11 1
     7    12    13 1
     8    14    13 ar
     9    14    15 ar
    10     4     5 2
    11     4     3 1
    12    10     5 1
    13    13    18 ar
    14     5     6 1
    15     3     2 2
    16    15    16 ar
    17     2     1 1
    18     2    32 1
    19     6     1 1
    20     6    31 2
    21    18    17 ar
    22    16    17 ar
    23    16    19 1
    24    30    19 2
    25    19    20 1
    26    20    21 1
    27    21    22 1
    28    21    25 1
    29    22    24 1
    30    22    23 1
    31    26    25 1
    32    26    27 1
    33    28    27 1
    34    27    29 1
    35     8    33 1
    36     8    34 1
    37     9    35 1
    38    10    36 1
    39    11    37 1
    40    14    38 1
    41    15    39 1
    42    17    40 1
    43    18    41 1
    44    20    42 1
    45    21    43 1
    46    25    44 1
    47    25    45 1
    48    26    46 1
    49    26    47 1
    50    32    48 1
    51    32    49 1
    52     1    50 1
    53     7    51 1
    54    11    52 1
    55    12    53 1
    56    54    32 1
@<TRIPOS>SUBSTRUCTURE
     1 1YJ         1 TEMP              0 ****  ****    0 ROOT
