@<TRIPOS>MOLECULE
1YJ
   55    57     1     0     0
SMALL
bcc


@<TRIPOS>ATOM
      1 N3         -1.2730    3.7310    1.6920 n         1 1YJ     -0.456400
      2 C2          0.1020    3.9030    1.5260 cc        1 1YJ      0.531800
      3 N1          1.0520    3.0390    1.8700 nd        1 1YJ     -0.591300
      4 C8A         0.6540    1.8920    2.5680 cd        1 1YJ      0.275600
      5 C4A        -0.6890    1.7070    2.9500 cc        1 1YJ     -0.027200
      6 C4         -1.7310    2.6220    2.4340 c         1 1YJ      0.703700
      7 N8          1.6340    0.9170    2.8530 nh        1 1YJ     -0.692000
      8 C7          1.2230   -0.1940    3.6820 c3        1 1YJ      0.182800
      9 C6         -0.0260    0.0540    4.5730 c3        1 1YJ      0.135500
     10 N5         -1.0750    0.6560    3.7800 nh        1 1YJ     -0.694000
     11 C9          0.4350    0.8020    5.8640 c3        1 1YJ      0.157800
     12 N10        -0.4880    1.7050    6.4940 nh        1 1YJ     -0.724600
     13 C4'        -0.5780    3.0260    6.0130 ca        1 1YJ      0.145600
     14 C3'         0.5820    3.7840    5.7230 ca        1 1YJ     -0.190000
     15 C2'         0.4710    5.0450    5.1520 ca        1 1YJ     -0.060000
     16 C1'        -0.7860    5.5940    4.8740 ca        1 1YJ     -0.184600
     17 C6'        -1.9350    4.9180    5.2960 ca        1 1YJ     -0.060000
     18 C5'        -1.8390    3.6480    5.8550 ca        1 1YJ     -0.190000
     19 C11        -0.8590    6.8340    4.0480 c         1 1YJ      0.676700
     20 N          -1.8950    7.6960    4.2450 n         1 1YJ     -0.487900
     21 CA         -1.9640    9.0100    3.6340 c3        1 1YJ     -0.105300
     22 C          -2.2990   10.1300    4.7240 c         1 1YJ      0.925600
     23 OX2        -2.1620   11.3070    4.3220 o         1 1YJ     -0.793300
     24 OX1        -2.6760    9.7320    5.8550 o         1 1YJ     -0.793300
     25 CB         -3.0490    9.1300    2.5610 c3        1 1YJ     -0.087400
     26 CG         -2.6820    8.5480    1.2150 c3        1 1YJ     -0.169400
     27 CD         -2.5420    7.0640    1.1720 c         1 1YJ      0.689100
     28 OE1        -1.7640    6.4200    0.4400 o         1 1YJ     -0.656000
     29 OE2        -3.2920    6.2270    1.9350 oh        1 1YJ     -0.599100
     30 O11        -0.0220    6.9870    3.1060 o         1 1YJ     -0.754100
     31 O4         -2.9520    2.4820    2.6050 o         1 1YJ     -0.589500
     32 N2          0.5580    5.1910    0.9310 n4        1 1YJ     -0.799600
     33 H3          2.0780   -0.5080    4.3430 h1        1 1YJ      0.071200
     34 H4          0.9870   -1.0480    2.9810 h1        1 1YJ      0.071200
     35 H5         -0.4270   -0.9540    4.8920 h1        1 1YJ      0.081700
     36 H6         -1.9640    0.7680    4.2200 hn        1 1YJ      0.437800
     37 H8          0.6760    0.0030    6.6240 h1        1 1YJ      0.064700
     38 H9          1.5820    3.3850    5.9480 ha        1 1YJ      0.141500
     39 H10         1.3770    5.6200    4.9010 ha        1 1YJ      0.151500
     40 H11        -2.9330    5.3650    5.1590 ha        1 1YJ      0.151500
     41 H12        -2.7600    3.1280    6.1600 ha        1 1YJ      0.141500
     42 H13        -3.8530    6.7290    2.5480 ho        1 1YJ      0.467000
     43 H14        -0.9660    9.2720    3.1830 h1        1 1YJ      0.076700
     44 H16        -4.0200    8.7070    2.9270 hc        1 1YJ      0.076700
     45 H17        -3.2090   10.2390    2.4180 hc        1 1YJ      0.076700
     46 H18        -1.7100    8.9950    0.8680 hc        1 1YJ      0.089200
     47 H19        -3.4710    8.8220    0.4600 hc        1 1YJ      0.089200
     48 H21         0.1920    5.9790    1.5220 hn        1 1YJ      0.492800
     49 H22         0.1600    5.2950   -0.0110 hn        1 1YJ      0.492800
     50 H23        -1.9350    4.4420    1.4140 hn        1 1YJ      0.389500
     51 H1          2.5320    1.2950    3.0810 hn        1 1YJ      0.414800
     52 H2          1.3890    1.3560    5.6430 h1        1 1YJ      0.064700
     53 H7         -1.3800    1.2940    6.6830 hn        1 1YJ      0.399800
     54 HN3        -2.3510    7.6730    5.1450 hn        1 1YJ      0.347500
     55 H231        1.5800    5.2310    0.8990 hn        1 1YJ      0.492800
@<TRIPOS>BOND
     1    1    2 1   
     2    1    6 1   
     3    1   50 1   
     4    2    3 2   
     5    2   32 1   
     6    3    4 1   
     7    4    5 2   
     8    4    7 1   
     9    5    6 1   
    10    5   10 1   
    11    6   31 2   
    12    7    8 1   
    13    7   51 1   
    14    8    9 1   
    15    8   33 1   
    16    8   34 1   
    17    9   10 1   
    18    9   11 1   
    19    9   35 1   
    20   10   36 1   
    21   11   12 1   
    22   11   37 1   
    23   11   52 1   
    24   12   13 1   
    25   12   53 1   
    26   13   14 ar  
    27   13   18 ar  
    28   14   15 ar  
    29   14   38 1   
    30   15   16 ar  
    31   15   39 1   
    32   16   17 ar  
    33   16   19 1   
    34   17   18 ar  
    35   17   40 1   
    36   18   41 1   
    37   19   20 1   
    38   19   30 2   
    39   20   21 1   
    40   20   54 1   
    41   21   22 1   
    42   21   25 1   
    43   21   43 1   
    44   22   23 1   
    45   22   24 1   
    46   25   26 1   
    47   25   44 1   
    48   25   45 1   
    49   26   27 1   
    50   26   46 1   
    51   26   47 1   
    52   27   28 2   
    53   27   29 1   
    54   29   42 1   
    55   32   48 1   
    56   32   49 1   
    57   32   55 1   
@<TRIPOS>SUBSTRUCTURE
     1 1YJ         1 TEMP              0 ****  ****    0 ROOT
