@<TRIPOS>MOLECULE
1YK
   72    76     1     0     0
SMALL
bcc


@<TRIPOS>ATOM
      1 C26         1.7920    0.3990   -0.1090 c3        1 1YK     -0.119100
      2 C14         0.2900    0.1480   -0.0190 c3        1 1YK      0.166800
      3 C15        -0.1590    0.0490    1.4400 c3        1 1YK     -0.079400
      4 C16        -0.2210    1.4110    2.0970 c3        1 1YK     -0.104400
      5 C17        -1.1350    2.3970    1.3630 c3        1 1YK      0.189800
      6 C18        -0.6890    2.5490   -0.1330 c3        1 1YK     -0.180000
      7 C13        -0.6130    1.1490   -0.8020 c3        1 1YK      0.157800
      8 C12        -0.1640    1.1770   -2.2750 c3        1 1YK     -0.042200
      9 C11        -0.0150   -0.2140   -2.7680 cc        1 1YK     -0.321400
     10 C10         0.0610   -1.2860   -1.9160 cd        1 1YK      0.243100
     11 C9          0.1270   -2.6270   -2.4340 cd        1 1YK     -0.254000
     12 C8          0.1210   -2.8090   -3.7860 cc        1 1YK      0.213900
     13 O6          0.0860   -1.7610   -4.6730 os        1 1YK     -0.333200
     14 C7          0.0180   -0.4430   -4.1930 c         1 1YK      0.744800
     15 O7          0.0050    0.3490   -5.1350 o         1 1YK     -0.581500
     16 C1          0.1740   -4.1110   -4.4560 ca        1 1YK     -0.022800
     17 C6          0.6650   -4.1970   -5.7630 ca        1 1YK     -0.188000
     18 C5          0.7320   -5.4420   -6.4000 ca        1 1YK      0.127600
     19 C4          0.2820   -6.6090   -5.7420 ca        1 1YK      0.066100
     20 C3         -0.2040   -6.5000   -4.4210 ca        1 1YK      0.127600
     21 C2         -0.2630   -5.2580   -3.7810 ca        1 1YK     -0.188000
     22 O3         -0.5770   -7.6900   -3.8280 os        1 1YK     -0.312900
     23 C27        -1.2980   -7.5830   -2.6050 c3        1 1YK      0.110200
     24 O4          0.2230   -7.7960   -6.4440 os        1 1YK     -0.309900
     25 C28         1.1680   -8.7750   -6.0080 c3        1 1YK      0.115700
     26 O5          1.2340   -5.6350   -7.6680 os        1 1YK     -0.312900
     27 C29         1.4590   -4.4550   -8.4370 c3        1 1YK      0.110200
     28 O8          0.0590   -1.1920   -0.5510 os        1 1YK     -0.302900
     29 O9         -1.9080    0.5420   -0.7450 oh        1 1YK     -0.613800
     30 C19        -1.7560    3.4310   -0.7870 c         1 1YK      0.595300
     31 O1         -2.3720    3.1150   -1.8090 o         1 1YK     -0.540100
     32 C20        -1.9750    4.7080   -0.0880 ce        1 1YK     -0.247200
     33 C21        -1.7090    4.8560    1.2140 c2        1 1YK     -0.082200
     34 C22        -1.2200    3.7650    2.1200 c3        1 1YK     -0.019800
     35 C24        -2.2380    3.6510    3.2640 c3        1 1YK     -0.085100
     36 C23         0.1050    4.1790    2.7500 c3        1 1YK     -0.085100
     37 C25         0.6290    3.2950   -0.2820 c3        1 1YK     -0.096100
     38 O2         -2.4830    1.9270    1.3880 oh        1 1YK     -0.609800
     39 H1          2.3230   -0.5850   -0.1470 hc        1 1YK      0.054700
     40 H2          2.0650    0.9800   -1.0200 hc        1 1YK      0.054700
     41 H3          2.1560    0.9470    0.7930 hc        1 1YK      0.054700
     42 H4         -1.1610   -0.4560    1.4700 hc        1 1YK      0.067700
     43 H5          0.5600   -0.6050    1.9990 hc        1 1YK      0.067700
     44 H6         -0.6080    1.2850    3.1430 hc        1 1YK      0.059700
     45 H7          0.8120    1.8410    2.1640 hc        1 1YK      0.059700
     46 H8         -0.9330    1.7200   -2.8920 hc        1 1YK      0.082200
     47 H9          0.8060    1.7240   -2.4020 hc        1 1YK      0.082200
     48 H10         0.1790   -3.4650   -1.7280 ha        1 1YK      0.170000
     49 H11         0.9910   -3.2800   -6.2790 ha        1 1YK      0.156500
     50 H12        -0.6630   -5.1760   -2.7600 ha        1 1YK      0.156500
     51 H13        -0.6350   -7.1910   -1.7960 h1        1 1YK      0.048533
     52 H14        -1.5970   -8.6410   -2.3900 h1        1 1YK      0.048533
     53 H15        -2.1990   -6.9340   -2.7270 h1        1 1YK      0.048533
     54 H16         0.9940   -9.0340   -4.9360 h1        1 1YK      0.044033
     55 H17         0.9590   -9.6510   -6.6710 h1        1 1YK      0.044033
     56 H18         2.2090   -8.4020   -6.1590 h1        1 1YK      0.044033
     57 H19         1.7400   -4.8570   -9.4440 h1        1 1YK      0.048533
     58 H20         2.3000   -3.8620   -8.0010 h1        1 1YK      0.048533
     59 H21         0.5320   -3.8360   -8.5010 h1        1 1YK      0.048533
     60 H22        -2.4760    1.0020   -1.3810 ho        1 1YK      0.440000
     61 H23        -2.3880    5.5250   -0.7010 ha        1 1YK      0.155000
     62 H24        -1.8810    5.8220    1.7180 ha        1 1YK      0.133000
     63 H25        -3.2690    3.5150    2.8570 hc        1 1YK      0.043867
     64 H26        -1.9930    2.7720    3.9050 hc        1 1YK      0.043867
     65 H27        -2.2120    4.5770    3.8870 hc        1 1YK      0.043867
     66 H28         0.9560    4.1230    2.0340 hc        1 1YK      0.043867
     67 H29         0.0290    5.2310    3.1220 hc        1 1YK      0.043867
     68 H30         0.3350    3.5190    3.6230 hc        1 1YK      0.043867
     69 H31         0.5190    4.3530    0.0660 hc        1 1YK      0.050700
     70 H32         0.9430    3.3340   -1.3530 hc        1 1YK      0.050700
     71 H33         1.4380    2.8110    0.3120 hc        1 1YK      0.050700
     72 H34        -2.4970    1.0000    1.1190 ho        1 1YK      0.431000
@<TRIPOS>BOND
     1    1    2 1   
     2    1   39 1   
     3    1   40 1   
     4    1   41 1   
     5    2    3 1   
     6    2    7 1   
     7    2   28 1   
     8    3    4 1   
     9    3   42 1   
    10    3   43 1   
    11    4    5 1   
    12    4   44 1   
    13    4   45 1   
    14    5    6 1   
    15    5   34 1   
    16    5   38 1   
    17    6    7 1   
    18    6   30 1   
    19    6   37 1   
    20    7    8 1   
    21    7   29 1   
    22    8    9 1   
    23    8   46 1   
    24    8   47 1   
    25    9   10 2   
    26    9   14 1   
    27   10   11 1   
    28   10   28 1   
    29   11   12 2   
    30   11   48 1   
    31   12   13 1   
    32   12   16 1   
    33   13   14 1   
    34   14   15 2   
    35   16   17 ar  
    36   16   21 ar  
    37   17   18 ar  
    38   17   49 1   
    39   18   19 ar  
    40   18   26 1   
    41   19   20 ar  
    42   19   24 1   
    43   20   21 ar  
    44   20   22 1   
    45   21   50 1   
    46   22   23 1   
    47   23   51 1   
    48   23   52 1   
    49   23   53 1   
    50   24   25 1   
    51   25   54 1   
    52   25   55 1   
    53   25   56 1   
    54   26   27 1   
    55   27   57 1   
    56   27   58 1   
    57   27   59 1   
    58   29   60 1   
    59   30   31 2   
    60   30   32 1   
    61   32   33 2   
    62   32   61 1   
    63   33   34 1   
    64   33   62 1   
    65   34   35 1   
    66   34   36 1   
    67   35   63 1   
    68   35   64 1   
    69   35   65 1   
    70   36   66 1   
    71   36   67 1   
    72   36   68 1   
    73   37   69 1   
    74   37   70 1   
    75   37   71 1   
    76   38   72 1   
@<TRIPOS>SUBSTRUCTURE
     1 1YK         1 TEMP              0 ****  ****    0 ROOT
