@<TRIPOS>MOLECULE
molecule
   72    76     1     0     0
SMALL
bcc


@<TRIPOS>ATOM
      1 C26          1.5270     0.0000     0.0000 c3         1 1YK      -0.125100
      2 C14          0.0000     0.0000     0.0000 c3         1 1YK       0.166800
      3 C15         -0.5220     0.0000     1.4330 c3         1 1YK      -0.066400
      4 C16         -0.3390     1.3780     2.0760 c3         1 1YK      -0.108400
      5 C17         -1.1330     2.4010     1.2660 c3         1 1YK       0.181800
      6 C18         -0.5450     2.4960    -0.1460 c3         1 1YK      -0.141000
      7 C13         -0.6030     1.1360    -0.8240 c3         1 1YK       0.154800
      8 C12          0.0870     1.1580    -2.1940 c3         1 1YK      -0.040200
      9 C11          0.0690    -0.2430    -2.7630 cc         1 1YK      -0.364400
     10 C10         -0.1850    -1.3370    -1.9580 cd         1 1YK       0.242100
     11 C9          -0.1760    -2.6160    -2.5520 cd         1 1YK      -0.258000
     12 C8           0.0790    -2.7350    -3.8830 cc         1 1YK       0.213900
     13 O6           0.3170    -1.6680    -4.6600 os         1 1YK      -0.290200
     14 C7           0.3160    -0.4400    -4.1240 c          1 1YK       0.748800
     15 O7           0.5360     0.5250    -4.8390 o          1 1YK      -0.600500
     16 C1           0.0970    -4.0800    -4.4900 ca         1 1YK      -0.006800
     17 C6           0.3570    -4.2280    -5.8550 ca         1 1YK      -0.218000
     18 C5           0.3740    -5.4880    -6.4220 ca         1 1YK       0.152100
     19 C4           0.1320    -6.6110    -5.6340 ca         1 1YK       0.070100
     20 C3          -0.1260    -6.4660    -4.2740 ca         1 1YK       0.152100
     21 C2          -0.1400    -5.2080    -3.7010 ca         1 1YK      -0.218000
     22 O3          -0.3580    -7.5640    -3.5060 os         1 1YK      -0.309400
     23 C27         -0.6060    -7.3440    -2.1160 c3         1 1YK       0.124200
     24 O4           0.1500    -7.8490    -6.1940 os         1 1YK      -0.323900
     25 C28          1.4020    -8.5350    -6.2140 c3         1 1YK       0.136700
     26 O5           0.6260    -5.6330    -7.7500 os         1 1YK      -0.309400
     27 C29          0.8650    -4.4390    -8.4990 c3         1 1YK       0.124200
     28 O8          -0.4340    -1.2260    -0.6330 os         1 1YK      -0.297900
     29 O9          -1.9930     0.8050    -1.0650 oh         1 1YK      -0.577800
     30 C19         -1.4280     3.4700    -0.9160 c          1 1YK       0.603300
     31 O1          -1.8540     3.2200    -2.0190 o          1 1YK      -0.517100
     32 C20         -1.7350     4.7410    -0.2510 ce         1 1YK      -0.241200
     33 C21         -1.6090     4.8630     1.0610 c2         1 1YK      -0.094200
     34 C22         -1.2260     3.7390     1.9780 c3         1 1YK      -0.053800
     35 C24         -2.3530     3.6280     3.0310 c3         1 1YK      -0.087600
     36 C23          0.0550     4.0960     2.7280 c3         1 1YK      -0.087600
     37 C25          0.8740     3.0690    -0.1390 c3         1 1YK      -0.091100
     38 O2          -2.4860     1.9000     1.1530 oh         1 1YK      -0.578800
     39 H1           1.8880     0.5440     0.8640 hc         1 1YK       0.053700
     40 H2           1.8880     0.4770    -0.9030 hc         1 1YK       0.053700
     41 H3           1.8880    -1.0210     0.0390 hc         1 1YK       0.053700
     42 H4           0.0230    -0.7370     2.0100 hc         1 1YK       0.066200
     43 H5          -1.5760    -0.2520     1.4270 hc         1 1YK       0.066200
     44 H6          -0.7080     1.3550     3.0940 hc         1 1YK       0.055700
     45 H7           0.7110     1.6440     2.0690 hc         1 1YK       0.055700
     46 H8          -0.4450     1.8270    -2.8580 hc         1 1YK       0.084200
     47 H9           1.1120     1.4900    -2.0780 hc         1 1YK       0.084200
     48 H10         -0.3640    -3.4980    -1.9510 ha         1 1YK       0.166000
     49 H11          0.5460    -3.3550    -6.4690 ha         1 1YK       0.154500
     50 H12         -0.3410    -5.0960    -2.6430 ha         1 1YK       0.154500
     51 H13         -0.7710    -8.2950    -1.6240 h1         1 1YK       0.045700
     52 H14          0.2480    -6.8500    -1.6700 h1         1 1YK       0.045700
     53 H15         -1.4850    -6.7210    -2.0010 h1         1 1YK       0.045700
     54 H16          2.1660    -7.9040    -5.7760 h1         1 1YK       0.035700
     55 H17          1.3220    -9.4520    -5.6440 h1         1 1YK       0.035700
     56 H18          1.6700    -8.7680    -7.2380 h1         1 1YK       0.035700
     57 H19         -0.0030    -3.7940    -8.4370 h1         1 1YK       0.045700
     58 H20          1.7270    -3.9250    -8.0920 h1         1 1YK       0.045700
     59 H21          1.0520    -4.6940    -9.5350 h1         1 1YK       0.045700
     60 H22         -2.1780     0.8790    -1.9870 ho         1 1YK       0.421000
     61 H23         -2.0160     5.6030    -0.8450 ha         1 1YK       0.152000
     62 H24         -1.8450     5.8220     1.5060 ha         1 1YK       0.128000
     63 H25         -3.3100     3.5480     2.5280 hc         1 1YK       0.042200
     64 H26         -2.1920     2.7480     3.6420 hc         1 1YK       0.042200
     65 H27         -2.3480     4.5100     3.6590 hc         1 1YK       0.042200
     66 H28          0.2260     3.3720     3.5150 hc         1 1YK       0.042200
     67 H29          0.8910     4.0870     2.0400 hc         1 1YK       0.042200
     68 H30         -0.0450     5.0840     3.1620 hc         1 1YK       0.042200
     69 H31          0.8390     4.1150     0.1390 hc         1 1YK       0.050700
     70 H32          1.3070     2.9720    -1.1270 hc         1 1YK       0.050700
     71 H33          1.4790     2.5250     0.5750 hc         1 1YK       0.050700
     72 H34         -2.7250     1.4580     1.9500 ho         1 1YK       0.401000
@<TRIPOS>BOND
     1    23    22 1   
     2    22    20 1   
     3    25    24 1   
     4    20    21 ar  
     5    20    19 ar  
     6    24    19 1   
     7    21    16 ar  
     8    15    14 2   
     9    19    18 ar  
    10    13    14 1   
    11    13    12 1   
    12    14     9 1   
    13    16    12 1   
    14    16    17 ar  
    15    18    17 ar  
    16    18    26 1   
    17    12    11 2   
    18    26    27 1   
    19     9     8 1   
    20     9    10 2   
    21     8     7 1   
    22    11    10 1   
    23    31    30 2   
    24    10    28 1   
    25    37     6 1   
    26    30     6 1   
    27    30    32 1   
    28     7    29 1   
    29     7     6 1   
    30     7     2 1   
    31     1     2 1   
    32     6     5 1   
    33    32    33 2   
    34    28     2 1   
    35     2     3 1   
    36    33    34 1   
    37     5    38 1   
    38     5    34 1   
    39     5     4 1   
    40     3     4 1   
    41    34    36 1   
    42    34    35 1   
    43     1    39 1   
    44     1    40 1   
    45     1    41 1   
    46     3    42 1   
    47     3    43 1   
    48     4    44 1   
    49     4    45 1   
    50     8    46 1   
    51     8    47 1   
    52    11    48 1   
    53    17    49 1   
    54    21    50 1   
    55    23    51 1   
    56    23    52 1   
    57    23    53 1   
    58    25    54 1   
    59    25    55 1   
    60    25    56 1   
    61    27    57 1   
    62    27    58 1   
    63    27    59 1   
    64    29    60 1   
    65    32    61 1   
    66    33    62 1   
    67    35    63 1   
    68    35    64 1   
    69    35    65 1   
    70    36    66 1   
    71    36    67 1   
    72    36    68 1   
    73    37    69 1   
    74    37    70 1   
    75    37    71 1   
    76    38    72 1   
@<TRIPOS>SUBSTRUCTURE
     1 1YK         1 TEMP              0 ****  ****    0 ROOT
