@<TRIPOS>MOLECULE
1YK
   72    76     1     0     0
SMALL
bcc


@<TRIPOS>ATOM
      1 C26          1.7540     0.3180    -0.2510 c3         1 1YK      -0.119100
      2 C14          0.2600     0.0340    -0.1440 c3         1 1YK       0.166800
      3 C15         -0.1690    -0.0800     1.3200 c3         1 1YK      -0.079400
      4 C16         -0.2530     1.2770     1.9820 c3         1 1YK      -0.104400
      5 C17         -1.1980     2.2450     1.2630 c3         1 1YK       0.189800
      6 C18         -0.7730     2.4130    -0.2370 c3         1 1YK      -0.179000
      7 C13         -0.6750     1.0160    -0.9130 c3         1 1YK       0.157800
      8 C12         -0.2440     1.0600    -2.3900 c3         1 1YK      -0.042200
      9 C11         -0.0700    -0.3260    -2.8910 cc         1 1YK      -0.322400
     10 C10          0.0400    -1.3990    -2.0440 cd         1 1YK       0.244100
     11 C9           0.1300    -2.7360    -2.5680 cd         1 1YK      -0.253000
     12 C8           0.1120    -2.9140    -3.9200 cc         1 1YK       0.212900
     13 O6           0.0420    -1.8630    -4.8030 os         1 1YK      -0.333200
     14 C7          -0.0500    -0.5490    -4.3170 c          1 1YK       0.744800
     15 O7          -0.0940     0.2450    -5.2560 o          1 1YK      -0.582500
     16 C1           0.1880    -4.2120    -4.5950 ca         1 1YK      -0.021800
     17 C6          -0.2260    -5.3680    -3.9230 ca         1 1YK      -0.190000
     18 C5          -0.1390    -6.6080    -4.5650 ca         1 1YK       0.129100
     19 C4           0.3780    -6.7060    -5.8770 ca         1 1YK       0.065100
     20 C3           0.7660    -5.5240    -6.5440 ca         1 1YK       0.129100
     21 C2           0.6720    -4.2820    -5.9060 ca         1 1YK      -0.190000
     22 O3           1.2190    -5.6960    -7.8360 os         1 1YK      -0.310900
     23 C27          1.6610    -4.5200    -8.5090 c3         1 1YK       0.109700
     24 O4           0.5880    -7.9570    -6.4200 os         1 1YK      -0.309900
     25 C28         -0.2720    -8.2660    -7.5200 c3         1 1YK       0.114700
     26 O5          -0.5420    -7.8020    -4.0050 os         1 1YK      -0.310900
     27 C29         -0.9360    -7.7530    -2.6370 c3         1 1YK       0.109700
     28 O8           0.0520    -1.3090    -0.6790 os         1 1YK      -0.302900
     29 O9          -1.9550     0.3810    -0.8420 oh         1 1YK      -0.613800
     30 C19         -1.8670     3.2730    -0.8750 c          1 1YK       0.596300
     31 O1          -2.4890     2.9470    -1.8910 o          1 1YK      -0.540100
     32 C20         -2.1060     4.5420    -0.1690 ce         1 1YK      -0.247200
     33 C21         -1.8270     4.6910     1.1310 c2         1 1YK      -0.081200
     34 C22         -1.3030     3.6090     2.0260 c3         1 1YK      -0.019800
     35 C24         -2.3050     3.4680     3.1820 c3         1 1YK      -0.085100
     36 C23          0.0200     4.0500     2.6420 c3         1 1YK      -0.085100
     37 C25          0.5260     3.1880    -0.3990 c3         1 1YK      -0.096100
     38 O2          -2.5350     1.7460     1.3030 oh         1 1YK      -0.610800
     39 H1           2.3070    -0.6540    -0.2990 hc         1 1YK       0.055033
     40 H2           2.1180     0.8710     0.6480 hc         1 1YK       0.055033
     41 H3           2.0040     0.9080    -1.1630 hc         1 1YK       0.055033
     42 H4           0.5710    -0.7200     1.8680 hc         1 1YK       0.068200
     43 H5          -1.1590    -0.6080     1.3600 hc         1 1YK       0.068200
     44 H6          -0.6240     1.1390     3.0330 hc         1 1YK       0.059700
     45 H7           0.7710     1.7300     2.0380 hc         1 1YK       0.059700
     46 H8          -1.0320     1.5870    -2.9960 hc         1 1YK       0.081700
     47 H9           0.7120     1.6290    -2.5270 hc         1 1YK       0.081700
     48 H10          0.2100    -3.5760    -1.8660 ha         1 1YK       0.171000
     49 H11         -0.6310    -5.2950    -2.9040 ha         1 1YK       0.157000
     50 H12          0.9690    -3.3560    -6.4200 ha         1 1YK       0.157000
     51 H13          2.5120    -4.0480    -7.9620 h1         1 1YK       0.048533
     52 H14          0.8190    -3.7950    -8.6300 h1         1 1YK       0.048533
     53 H15          1.9970    -4.9070    -9.5050 h1         1 1YK       0.048533
     54 H16         -1.3380    -8.2680    -7.1890 h1         1 1YK       0.044367
     55 H17         -0.1180    -7.5360    -8.3510 h1         1 1YK       0.044367
     56 H18          0.0530    -9.2920    -7.8220 h1         1 1YK       0.044367
     57 H19         -0.1090    -7.3580    -1.9980 h1         1 1YK       0.048533
     58 H20         -1.8570    -7.1330    -2.5150 h1         1 1YK       0.048533
     59 H21         -1.1460    -8.8250    -2.3930 h1         1 1YK       0.048533
     60 H22         -2.5410     0.8310    -1.4680 ho         1 1YK       0.440000
     61 H23         -2.5440     5.3520    -0.7730 ha         1 1YK       0.155000
     62 H24         -2.0140     5.6520     1.6410 ha         1 1YK       0.133000
     63 H25         -2.2920     4.3920     3.8080 hc         1 1YK       0.043867
     64 H26         -2.0330     2.5920     3.8170 hc         1 1YK       0.043867
     65 H27         -3.3370     3.3100     2.7870 hc         1 1YK       0.043867
     66 H28         -0.0750     5.0980     3.0180 hc         1 1YK       0.043867
     67 H29          0.2750     3.3920     3.5100 hc         1 1YK       0.043867
     68 H30          0.8630     4.0150     1.9150 hc         1 1YK       0.043867
     69 H31          0.3980     4.2420    -0.0460 hc         1 1YK       0.050700
     70 H32          1.3530     2.7190     0.1830 hc         1 1YK       0.050700
     71 H33          0.8260     3.2380    -1.4740 hc         1 1YK       0.050700
     72 H34         -2.5300     0.8190     1.0310 ho         1 1YK       0.431000
@<TRIPOS>BOND
     1     1     2 1   
     2     1    39 1   
     3     1    40 1   
     4     1    41 1   
     5     2     3 1   
     6     2     7 1   
     7     2    28 1   
     8     3     4 1   
     9     3    42 1   
    10     3    43 1   
    11     4     5 1   
    12     4    44 1   
    13     4    45 1   
    14     5     6 1   
    15     5    34 1   
    16     5    38 1   
    17     6     7 1   
    18     6    30 1   
    19     6    37 1   
    20     7     8 1   
    21     7    29 1   
    22     8     9 1   
    23     8    46 1   
    24     8    47 1   
    25     9    10 2   
    26     9    14 1   
    27    10    11 1   
    28    10    28 1   
    29    11    12 2   
    30    11    48 1   
    31    12    13 1   
    32    12    16 1   
    33    13    14 1   
    34    14    15 2   
    35    16    17 ar  
    36    16    21 ar  
    37    17    18 ar  
    38    17    49 1   
    39    18    19 ar  
    40    18    26 1   
    41    19    20 ar  
    42    19    24 1   
    43    20    21 ar  
    44    20    22 1   
    45    21    50 1   
    46    22    23 1   
    47    23    51 1   
    48    23    52 1   
    49    23    53 1   
    50    24    25 1   
    51    25    54 1   
    52    25    55 1   
    53    25    56 1   
    54    26    27 1   
    55    27    57 1   
    56    27    58 1   
    57    27    59 1   
    58    29    60 1   
    59    30    31 2   
    60    30    32 1   
    61    32    33 2   
    62    32    61 1   
    63    33    34 1   
    64    33    62 1   
    65    34    35 1   
    66    34    36 1   
    67    35    63 1   
    68    35    64 1   
    69    35    65 1   
    70    36    66 1   
    71    36    67 1   
    72    36    68 1   
    73    37    69 1   
    74    37    70 1   
    75    37    71 1   
    76    38    72 1   
@<TRIPOS>SUBSTRUCTURE
     1 1YK         1 TEMP              0 ****  ****    0 ROOT
