@<TRIPOS>MOLECULE
molecule
   35    38     1     0     0
SMALL
bcc


@<TRIPOS>ATOM
      1 C18          0.0000     0.0000     0.0000 c3         1 1YL      -0.049800
      2 C4           1.5070     0.0000     0.0000 ca         1 1YL      -0.076300
      3 C3           2.1910     0.0000     1.1760 ca         1 1YL      -0.116000
      4 C2           3.5840    -0.0060     1.1970 ca         1 1YL      -0.114000
      5 C1           4.3020    -0.0110     0.0380 ca         1 1YL      -0.128000
      6 C10          3.6330    -0.0110    -1.1940 ca         1 1YL       0.003000
      7 C5           2.2130    -0.0050    -1.2160 ca         1 1YL      -0.035000
      8 C6           1.5390    -0.0080    -2.4480 ca         1 1YL      -0.087000
      9 C7           2.2370    -0.0120    -3.6200 ca         1 1YL      -0.123000
     10 C8           3.6390    -0.0130    -3.6240 ca         1 1YL      -0.008800
     11 C9           4.3410    -0.0160    -2.4160 ca         1 1YL      -0.134600
     12 C11          5.8140    -0.0270    -2.4360 c          1 1YL       0.495700
     13 O21          6.4540    -0.0380    -1.4060 o          1 1YL      -0.468100
     14 C12          6.4960    -0.0250    -3.7700 c          1 1YL       0.512300
     15 O20          7.7100    -0.0330    -3.8350 o          1 1YL      -0.481100
     16 C13          5.7250    -0.0130    -4.9440 cc         1 1YL      -0.328400
     17 C14          4.3650    -0.0190    -4.9190 cd         1 1YL       0.205900
     18 O19          3.8410    -0.0420    -6.1720 os         1 1YL      -0.305900
     19 C16          4.8340     0.4070    -7.1090 c3         1 1YL       0.127400
     20 C15          6.1520     0.0110    -6.4030 c3         1 1YL      -0.035500
     21 C17          6.6190    -1.3720    -6.8620 c3         1 1YL      -0.084100
     22 H1          -0.3610    -0.8870    -0.5070 hc         1 1YL       0.046033
     23 H2          -0.3610     0.8820    -0.5140 hc         1 1YL       0.046033
     24 H3          -0.3610     0.0040     1.0210 hc         1 1YL       0.046033
     25 H4           1.6440     0.0040     2.1110 ha         1 1YL       0.133000
     26 H5           4.1040    -0.0060     2.1470 ha         1 1YL       0.136000
     27 H6           5.3850    -0.0160     0.0700 ha         1 1YL       0.184000
     28 H7           0.4560    -0.0080    -2.4670 ha         1 1YL       0.141000
     29 H8           1.7010    -0.0150    -4.5610 ha         1 1YL       0.149000
     30 H11          4.7340    -0.1140    -8.0530 h1         1 1YL       0.068700
     31 H12          4.7780     1.4800    -7.2430 h1         1 1YL       0.068700
     32 H13          6.9160     0.7610    -6.5670 hc         1 1YL       0.077700
     33 H14          6.8290    -1.3480    -7.9240 hc         1 1YL       0.044367
     34 H15          5.8410    -2.0990    -6.6640 hc         1 1YL       0.044367
     35 H16          7.5160    -1.6470    -6.3220 hc         1 1YL       0.044367
@<TRIPOS>BOND
     1     4     5 ar
     2     4     3 ar
     3    13    12 2
     4     5     6 ar
     5    15    14 2
     6     3     2 ar
     7    12    14 1
     8    12    11 1
     9    14    16 1
    10     6    11 ar
    11     6     7 ar
    12    11    10 ar
    13     2     7 ar
    14     2     1 1
    15     7     8 ar
    16    16    20 1
    17    16    17 2
    18    10    17 1
    19    10     9 ar
    20    20    21 1
    21    20    19 1
    22    17    18 1
    23     8     9 ar
    24    19    18 1
    25     1    22 1
    26     1    23 1
    27     1    24 1
    28     3    25 1
    29     4    26 1
    30     5    27 1
    31     8    28 1
    32     9    29 1
    33    19    30 1
    34    19    31 1
    35    20    32 1
    36    21    33 1
    37    21    34 1
    38    21    35 1
@<TRIPOS>SUBSTRUCTURE
     1 1YL         1 TEMP              0 ****  ****    0 ROOT
