@<TRIPOS>MOLECULE
1YL
   35    38     1     0     0
SMALL
bcc


@<TRIPOS>ATOM
      1 C18         0.0080   -0.0440    0.0280 c3        1 1YL     -0.057800
      2 C4          1.4910   -0.0550    0.0240 ca        1 1YL     -0.070300
      3 C3          2.1860   -0.1620    1.2090 ca        1 1YL     -0.118000
      4 C2          3.5980   -0.1800    1.2150 ca        1 1YL     -0.117000
      5 C1          4.3030   -0.0810    0.0420 ca        1 1YL     -0.117000
      6 C10         3.6290    0.0430   -1.2060 ca        1 1YL     -0.001000
      7 C5          2.2040    0.0440   -1.2120 ca        1 1YL     -0.029000
      8 C6          1.5120    0.1400   -2.4490 ca        1 1YL     -0.095000
      9 C7          2.1950    0.2020   -3.6370 ca        1 1YL     -0.111000
     10 C8          3.6080    0.1880   -3.6390 ca        1 1YL     -0.026800
     11 C9          4.3300    0.1460   -2.4450 ca        1 1YL     -0.115600
     12 C11         5.8110    0.2600   -2.5000 c         1 1YL      0.480700
     13 O21         6.4860    0.7610   -1.5970 o         1 1YL     -0.472100
     14 C12         6.5130   -0.1890   -3.7790 c         1 1YL      0.521300
     15 O20         7.6630   -0.6330   -3.7460 o         1 1YL     -0.484100
     16 C13         5.7070   -0.0180   -4.9670 cc        1 1YL     -0.317400
     17 C14         4.3540    0.1750   -4.8780 cd        1 1YL      0.202900
     18 O19         3.7290    0.3010   -6.1020 os        1 1YL     -0.314900
     19 C16         4.7650    0.1830   -7.1300 c3        1 1YL      0.114400
     20 C15         6.1200   -0.0350   -6.4100 c3        1 1YL     -0.016500
     21 C17         6.7940   -1.3180   -6.8240 c3        1 1YL     -0.094100
     22 H1         -0.3780    0.9060   -0.4190 hc        1 1YL      0.048033
     23 H2         -0.3910   -0.9040   -0.5670 hc        1 1YL      0.048033
     24 H3         -0.3920   -0.1270    1.0690 hc        1 1YL      0.048033
     25 H4          1.6480   -0.2380    2.1660 ha        1 1YL      0.137000
     26 H5          4.1270   -0.2750    2.1760 ha        1 1YL      0.140000
     27 H6          5.4050   -0.0960    0.0640 ha        1 1YL      0.163000
     28 H7          0.4100    0.1590   -2.4470 ha        1 1YL      0.143000
     29 H8          1.6670    0.2620   -4.6020 ha        1 1YL      0.157000
     30 H11         4.7330    1.1380   -7.7060 h1        1 1YL      0.068200
     31 H12         4.4680   -0.6860   -7.7650 h1        1 1YL      0.068200
     32 H13         6.8060    0.8300   -6.6200 hc        1 1YL      0.073700
     33 H14         7.1070   -1.2610   -7.8940 hc        1 1YL      0.048367
     34 H15         6.1060   -2.1890   -6.7000 hc        1 1YL      0.048367
     35 H16         7.6980   -1.4880   -6.1880 hc        1 1YL      0.048367
@<TRIPOS>BOND
     1    1    2 1   
     2    1   22 1   
     3    1   23 1   
     4    1   24 1   
     5    2    3 ar  
     6    2    7 ar  
     7    3    4 ar  
     8    3   25 1   
     9    4    5 ar  
    10    4   26 1   
    11    5    6 ar  
    12    5   27 1   
    13    6    7 ar  
    14    6   11 ar  
    15    7    8 ar  
    16    8    9 ar  
    17    8   28 1   
    18    9   10 ar  
    19    9   29 1   
    20   10   11 ar  
    21   10   17 1   
    22   11   12 1   
    23   12   13 2   
    24   12   14 1   
    25   14   15 2   
    26   14   16 1   
    27   16   17 2   
    28   16   20 1   
    29   17   18 1   
    30   18   19 1   
    31   19   20 1   
    32   19   30 1   
    33   19   31 1   
    34   20   21 1   
    35   20   32 1   
    36   21   33 1   
    37   21   34 1   
    38   21   35 1   
@<TRIPOS>SUBSTRUCTURE
     1 1YL         1 TEMP              0 ****  ****    0 ROOT
