@<TRIPOS>MOLECULE
1YL
   35    38     1     0     0
SMALL
bcc


@<TRIPOS>ATOM
      1 C18          0.1680    -0.0230     0.0080 c3         1 1YL      -0.057800
      2 C4           1.6470    -0.0350    -0.0930 ca         1 1YL      -0.070300
      3 C3           2.4170    -0.1430     1.0450 ca         1 1YL      -0.118000
      4 C2           3.8270    -0.1630     0.9590 ca         1 1YL      -0.117000
      5 C1           4.4540    -0.0660    -0.2570 ca         1 1YL      -0.117000
      6 C10          3.7010     0.0590    -1.4590 ca         1 1YL      -0.001000
      7 C5           2.2790     0.0610    -1.3730 ca         1 1YL      -0.029000
      8 C6           1.5080     0.1580    -2.5620 ca         1 1YL      -0.095000
      9 C7           2.1120     0.2180    -3.7920 ca         1 1YL      -0.111000
     10 C8           3.5220     0.2030    -3.8850 ca         1 1YL      -0.026800
     11 C9           4.3200     0.1600    -2.7400 ca         1 1YL      -0.115600
     12 C11          5.7950     0.2720    -2.8910 c          1 1YL       0.480700
     13 O21          6.5270     0.7720    -2.0340 o          1 1YL      -0.472100
     14 C12          6.4120    -0.1790    -4.2130 c          1 1YL       0.521300
     15 O20          7.5610    -0.6230    -4.2550 o          1 1YL      -0.484100
     16 C13          5.5300    -0.0070    -5.3470 cc         1 1YL      -0.317400
     17 C14          4.1870     0.1880    -5.1700 cd         1 1YL       0.202900
     18 O19          3.4840     0.3140    -6.3510 os         1 1YL      -0.314900
     19 C16          4.4510     0.1940    -7.4440 c3         1 1YL       0.114400
     20 C15          5.8490    -0.0250    -6.8130 c3         1 1YL      -0.016500
     21 C17          6.4930    -1.3090    -7.2690 c3         1 1YL      -0.094100
     22 H1          -0.2450     0.9280    -0.4150 hc         1 1YL       0.048033
     23 H2          -0.2710    -0.8820    -0.5590 hc         1 1YL       0.048033
     24 H3          -0.1640    -0.1030     1.0730 hc         1 1YL       0.048033
     25 H4           1.9420    -0.2170     2.0350 ha         1 1YL       0.137000
     26 H5           4.4160    -0.2580     1.8840 ha         1 1YL       0.140000
     27 H6           5.5550    -0.0820    -0.3060 ha         1 1YL       0.163000
     28 H7           0.4090     0.1780    -2.4890 ha         1 1YL       0.143000
     29 H8           1.5230     0.2780    -4.7210 ha         1 1YL       0.157000
     30 H11          4.3820     1.1490    -8.0180 h1         1 1YL       0.068200
     31 H12          4.1120    -0.6750    -8.0580 h1         1 1YL       0.068200
     32 H13          6.5210     0.8390    -7.0680 hc         1 1YL       0.073700
     33 H14          6.7370    -1.2530    -8.3570 hc         1 1YL       0.048367
     34 H15          5.8140    -2.1790    -7.1000 hc         1 1YL       0.048367
     35 H16          7.4370    -1.4800    -6.6930 hc         1 1YL       0.048367
@<TRIPOS>BOND
     1     1     2 1   
     2     1    22 1   
     3     1    23 1   
     4     1    24 1   
     5     2     3 ar  
     6     2     7 ar  
     7     3     4 ar  
     8     3    25 1   
     9     4     5 ar  
    10     4    26 1   
    11     5     6 ar  
    12     5    27 1   
    13     6     7 ar  
    14     6    11 ar  
    15     7     8 ar  
    16     8     9 ar  
    17     8    28 1   
    18     9    10 ar  
    19     9    29 1   
    20    10    11 ar  
    21    10    17 1   
    22    11    12 1   
    23    12    13 2   
    24    12    14 1   
    25    14    15 2   
    26    14    16 1   
    27    16    17 2   
    28    16    20 1   
    29    17    18 1   
    30    18    19 1   
    31    19    20 1   
    32    19    30 1   
    33    19    31 1   
    34    20    21 1   
    35    20    32 1   
    36    21    33 1   
    37    21    34 1   
    38    21    35 1   
@<TRIPOS>SUBSTRUCTURE
     1 1YL         1 TEMP              0 ****  ****    0 ROOT
