@<TRIPOS>MOLECULE
molecule
   43    45     1     0     0
SMALL
bcc


@<TRIPOS>ATOM
      1 C1           0.0000     0.0000     0.0000 c3         1 1YM      -0.114100
      2 C2           1.5300     0.0000     0.0000 c3         1 1YM       0.130000
      3 O5           4.1340    -0.0010     0.7030 o          1 1YM      -0.583100
      4 N6           3.7940     0.0000     2.8980 ns         1 1YM      -0.564400
      5 C7           5.1600     0.1030     3.1530 ca         1 1YM       0.551200
      6 C8           5.6060     0.1660     4.4650 ca         1 1YM      -0.261300
      7 C9           6.9770     0.2680     4.7110 ca         1 1YM      -0.070500
      8 C10          7.8510     0.3020     3.6030 cp         1 1YM      -0.146300
      9 C11          7.3140     0.2330     2.3220 ca         1 1YM       0.462200
     10 C13          9.3150     0.4100     3.8020 cp         1 1YM      -0.229300
     11 C14         10.0700     1.2970     3.0330 ca         1 1YM      -0.057000
     12 C15         11.4490     1.3600     3.2600 ca         1 1YM      -0.219900
     13 C16         12.0110     0.5390     4.2390 ca         1 1YM       0.447200
     14 C19         12.2980     2.2800     2.4750 c          1 1YM       0.882200
     15 C22          7.4980     0.3390     6.0910 cc         1 1YM       0.505900
     16 N23          6.9700    -0.2440     7.1290 nd         1 1YM      -0.657000
     17 C24          7.5720    -0.0700     8.2820 cd         1 1YM       0.264600
     18 C27          7.0570    -0.6930     9.5540 c3         1 1YM       0.602600
     19 N3           2.0180     0.0000     1.3810 ns         1 1YM      -0.613900
     20 C4           3.3440    -0.0000     1.6270 c          1 1YM       0.768100
     21 N12          6.0130     0.1330     2.1390 nb         1 1YM      -0.671000
     22 N17         11.2610    -0.2850     4.9430 nb         1 1YM      -0.722000
     23 C18          9.9590    -0.3690     4.7630 ca         1 1YM       0.395200
     24 O20         11.7980     2.9910     1.6250 o          1 1YM      -0.826300
     25 O21         13.6240     2.3330     2.7030 o          1 1YM      -0.826300
     26 C25          8.6700     0.6930     8.2570 cc         1 1YM      -0.165400
     27 S26          8.9390     1.2180     6.5970 ss         1 1YM      -0.060300
     28 F28          8.0750    -1.4480    10.1480 f          1 1YM      -0.221967
     29 F29          6.6500     0.3150    10.4350 f          1 1YM      -0.221967
     30 F30          5.9710    -1.5240     9.2620 f          1 1YM      -0.221967
     31 H1          -0.3610     0.8820     0.5150 hc         1 1YM       0.039367
     32 H2          -0.3610     0.0050    -1.0210 hc         1 1YM       0.039367
     33 H3          -0.3610    -0.8870     0.5070 hc         1 1YM       0.039367
     34 H4           1.8910     0.8850    -0.5110 h1         1 1YM       0.053200
     35 H5           1.8910    -0.8850    -0.5110 h1         1 1YM       0.053200
     36 H6           3.1490    -0.1030     3.6560 hn         1 1YM       0.319500
     37 H7           4.9020     0.1370     5.2870 ha         1 1YM       0.145000
     38 H8           7.9740     0.2560     1.4630 h4         1 1YM       0.049100
     39 H9           9.6000     1.9200     2.2810 ha         1 1YM       0.160000
     40 H10         13.0780     0.5780     4.4220 h4         1 1YM       0.053100
     41 H11          1.3680    -0.0190     2.1410 hn         1 1YM       0.300500
     42 H12          9.3810    -1.0610     5.3640 h4         1 1YM       0.006100
     43 H14          9.2900     0.9420     9.1100 h4         1 1YM       0.187000
@<TRIPOS>BOND
     1     1     2 1   
     2     2    19 1   
     3    19    20 1   
     4    20     3 2   
     5    20     4 1   
     6     4     5 1   
     7     5     6 ar  
     8     5    21 ar  
     9     6     7 ar  
    10    21     9 ar  
    11    27    15 1   
    12    27    26 1   
    13     7    15 1   
    14     7     8 ar  
    15     9     8 ar  
    16    15    16 2   
    17     8    10 1   
    18    26    17 2   
    19    24    14 1   
    20    11    10 ar  
    21    11    12 ar  
    22    10    23 ar  
    23    16    17 1   
    24    17    18 1   
    25    14    12 1   
    26    14    25 1   
    27    12    13 ar  
    28    23    22 ar  
    29    29    18 1   
    30    18    30 1   
    31    18    28 1   
    32    13    22 ar  
    33     1    31 1   
    34     1    32 1   
    35     1    33 1   
    36     2    34 1   
    37     2    35 1   
    38     4    36 1   
    39     6    37 1   
    40     9    38 1   
    41    11    39 1   
    42    13    40 1   
    43    19    41 1   
    44    23    42 1   
    45    26    43 1   
@<TRIPOS>SUBSTRUCTURE
     1 1YM         1 TEMP              0 ****  ****    0 ROOT
