@<TRIPOS>MOLECULE
1YM
   44    47     1     0     0
SMALL
bcc


@<TRIPOS>ATOM
      1 C1           0.5420     0.2900    -0.4250 c3         1 1YM      -0.136100
      2 C2           1.6820     0.7170     0.4760 c3         1 1YM       0.106800
      3 O5           2.0850     2.2190     3.3790 o          1 1YM      -0.452100
      4 N6           3.7100     0.6040     2.7710 ns         1 1YM      -0.462400
      5 C7           4.6360     0.8800     3.8470 ca         1 1YM       0.398200
      6 C8           5.9240     1.3220     3.5080 ca         1 1YM      -0.178300
      7 C9           6.8560     1.5810     4.5450 ca         1 1YM       0.040100
      8 C10          6.4200     1.3620     5.8720 cp         1 1YM      -0.117300
      9 C11          5.0890     0.9320     6.0950 ca         1 1YM       0.426200
     10 C13          7.3070     1.5680     7.0020 cp         1 1YM      -0.187300
     11 C14          8.5800     0.9850     6.9550 ca         1 1YM      -0.083000
     12 C15          9.5840     1.4750     7.7980 ca         1 1YM      -0.249900
     13 C16          9.2080     2.3460     8.8360 ca         1 1YM       0.437200
     14 C19         10.9990     1.2350     7.3600 c          1 1YM       0.762200
     15 C22          8.1690     2.0790     4.1620 ce         1 1YM       0.270200
     16 N23          8.2570     2.9320     3.1040 nf         1 1YM      -0.526300
     17 C24          9.5730     3.2630     2.9130 cf         1 1YM      -0.072600
     18 C27          9.9650     4.2000     1.7880 c3         1 1YM       0.723100
     19 N3           1.3630     0.5720     1.9230 ny         1 1YM      -0.691800
     20 C4           2.4730     1.1940     2.8230 c          1 1YM       0.651100
     21 N12          4.1980     0.6870     5.1300 nb         1 1YM      -0.710000
     22 N17          7.9420     2.7860     9.0020 nb         1 1YM      -0.672000
     23 C18          7.0280     2.4410     8.0770 ca         1 1YM       0.414200
     24 O20         11.9360     1.0080     8.1410 o          1 1YM      -0.680500
     25 O21         11.1890     1.3080     6.0690 os         1 1YM      -0.437900
     26 C25         10.4860     2.6940     3.8140 c2         1 1YM      -0.050300
     27 S26          9.7190     1.7400     4.8870 s4         1 1YM      -0.088500
     28 F28          9.6200     3.7600     0.5310 f          1 1YM      -0.245300
     29 F29          9.4090     5.4540     1.8590 f          1 1YM      -0.245300
     30 F30         11.3150     4.4400     1.6920 f          1 1YM      -0.245300
     31 H1           0.8670     0.4350    -1.4880 hc         1 1YM       0.075367
     32 H2           0.2850    -0.7880    -0.2840 hc         1 1YM       0.075367
     33 H3          -0.3730     0.9080    -0.2540 hc         1 1YM       0.075367
     34 H4           1.9340     1.8030     0.2950 hx         1 1YM       0.109700
     35 H5           2.6000     0.1000     0.2540 hx         1 1YM       0.109700
     36 H6           3.8090    -0.3050     2.3680 hn         1 1YM       0.329500
     37 H7           6.2160     1.4840     2.4590 ha         1 1YM       0.176000
     38 H8           4.7270     0.7780     7.1300 h4         1 1YM       0.038100
     39 H9           8.7890     0.1450     6.2650 ha         1 1YM       0.157000
     40 H10          9.9600     2.7140     9.5590 h4         1 1YM       0.044100
     41 H11          0.4970     1.0850     2.1340 hn         1 1YM       0.452300
     42 H12          6.0290     2.8980     8.1880 h4         1 1YM       0.017100
     43 H14         11.5610     2.8880     3.7950 h4         1 1YM       0.193000
     44 H32          1.2190    -0.4120     2.1560 hn         1 1YM       0.452300
@<TRIPOS>BOND
     1     1     2 1   
     2     1    31 1   
     3     1    32 1   
     4     1    33 1   
     5     2    19 1   
     6     2    34 1   
     7     2    35 1   
     8     3    20 2   
     9     4     5 1   
    10     4    20 1   
    11     4    36 1   
    12     5     6 ar  
    13     5    21 ar  
    14     6     7 ar  
    15     6    37 1   
    16     7     8 ar  
    17     7    15 1   
    18     8     9 ar  
    19     8    10 1   
    20     9    21 ar  
    21     9    38 1   
    22    10    11 ar  
    23    10    23 ar  
    24    11    12 ar  
    25    11    39 1   
    26    12    13 ar  
    27    12    14 1   
    28    13    22 ar  
    29    13    40 1   
    30    14    24 2   
    31    14    25 1   
    32    15    16 2   
    33    15    27 1   
    34    16    17 1   
    35    17    18 1   
    36    17    26 2   
    37    18    28 1   
    38    18    29 1   
    39    18    30 1   
    40    19    20 1   
    41    19    41 1   
    42    19    44 1   
    43    22    23 ar  
    44    23    42 1   
    45    25    27 1   
    46    26    27 1   
    47    26    43 1   
@<TRIPOS>SUBSTRUCTURE
     1 1YM         1 TEMP              0 ****  ****    0 ROOT
