@<TRIPOS>MOLECULE
1YN
   87    93     1     0     0
SMALL
bcc


@<TRIPOS>ATOM
      1 C12          0.0000     0.0000     0.0000 ca         1 1YN      -0.097000
      2 C11          1.3880     0.0000     0.0000 ca         1 1YN      -0.119400
      3 C01          5.1580    -2.4930    -3.2720 c3         1 1YN      -0.003100
      4 C02          5.1920    -1.2480    -4.1590 c3         1 1YN      -0.047400
      5 C03          5.0300     0.0020    -3.2910 c3         1 1YN       0.059700
      6 C04          5.1900     1.2510    -4.1600 c3         1 1YN      -0.011100
      7 N05          3.7010     0.0010    -2.6760 n          1 1YN       0.119200
      8 C06          3.4310     0.0010    -1.3540 c          1 1YN       0.551500
      9 O07          4.2490     0.0020    -0.4520 o          1 1YN      -0.711500
     10 N08          2.0900     0.0000    -1.2170 n          1 1YN       0.157500
     11 C09          1.5260     0.0010    -2.4710 cc         1 1YN       0.245800
     12 N10          2.4740     0.0060    -3.3530 n2         1 1YN      -0.574300
     13 C13         -0.6900    -0.0010     1.1960 ca         1 1YN      -0.127500
     14 C14          0.0050    -0.0010     2.3990 ca         1 1YN       0.018600
     15 C15          1.3940    -0.0010     2.3980 ca         1 1YN      -0.127500
     16 C16          2.0840     0.0000     1.2020 ca         1 1YN      -0.097000
     17 N17         -0.6940    -0.0010     3.6100 nh         1 1YN      -0.362000
     18 C18          0.2320    -0.0020     4.7510 c3         1 1YN       0.134300
     19 C19         -0.5690    -0.0830     6.0540 c3         1 1YN       0.134800
     20 N20         -1.4930     1.0580     6.1290 nh         1 1YN      -0.364000
     21 C21         -2.4180     1.0590     4.9870 c3         1 1YN       0.134800
     22 C22         -1.6170     1.1390     3.6860 c3         1 1YN       0.134300
     23 C23         -2.1920     1.0570     7.3410 ca         1 1YN      -0.019400
     24 C24         -1.9550     0.0610     8.2800 ca         1 1YN      -0.102500
     25 C25         -2.6410     0.0650     9.4780 ca         1 1YN      -0.149500
     26 C26         -3.5660     1.0640     9.7450 ca         1 1YN       0.132100
     27 C27         -3.8040     2.0590     8.8080 ca         1 1YN      -0.149500
     28 C28         -3.1180     2.0570     7.6090 ca         1 1YN      -0.102500
     29 O29         -4.2420     1.0670    10.9250 os         1 1YN      -0.287900
     30 C30         -5.1800     2.1250    11.1340 c3         1 1YN       0.203400
     31 C31         -5.8360     1.9610    12.5060 c3         1 1YN       0.099100
     32 C32         -6.8580     3.0980    12.7630 c3         1 1YN       0.179400
     33 O33         -7.7680     2.4690    13.6980 os         1 1YN      -0.394600
     34 C34         -7.8450     1.0980    13.2700 c3         1 1YN       0.404900
     35 O35         -6.6520     0.7730    12.5430 os         1 1YN      -0.354600
     36 C36         -9.0650     0.9090    12.3670 c3         1 1YN      -0.038700
     37 N37         -9.1020    -0.4710    11.8780 na         1 1YN       0.339600
     38 C38        -10.1270    -1.3350    11.9800 cc         1 1YN       0.284400
     39 N39         -9.7660    -2.4620    11.4220 nd         1 1YN      -0.695000
     40 C40         -8.5230    -2.3570    10.9550 cd         1 1YN       0.597900
     41 N41         -8.0760    -1.1550    11.2060 nc         1 1YN      -0.648800
     42 C42         -7.9650     0.1990    14.4730 ca         1 1YN      -0.116300
     43 C43         -6.9200     0.1080    15.3750 ca         1 1YN       0.021400
     44 C44         -7.0300    -0.7180    16.4800 ca         1 1YN      -0.100000
     45 C45         -8.1850    -1.4520    16.6810 ca         1 1YN      -0.015600
     46 C46         -9.2290    -1.3610    15.7780 ca         1 1YN      -0.091000
     47 C47         -9.1210    -0.5310    14.6780 ca         1 1YN      -0.098000
     48 Cl8         -8.3230    -2.4890    18.0660 cl         1 1YN      -0.010400
     49 Cl9         -5.4700     1.0290    15.1220 cl         1 1YN       0.000600
     50 H1          -0.5420     0.0010    -0.9380 ha         1 1YN       0.139000
     51 H2           4.1290    -2.7550    -3.0570 hc         1 1YN       0.007033
     52 H3           5.6400    -3.3160    -3.7850 hc         1 1YN       0.007033
     53 H4           5.6800    -2.2910    -2.3440 hc         1 1YN       0.007033
     54 H6           4.3840    -1.2950    -4.8790 hc         1 1YN       0.029200
     55 H7           5.7860     0.0030    -2.5150 h1         1 1YN       0.062700
     56 H8           4.7460     2.1010    -3.6560 hc         1 1YN       0.014033
     57 H9           4.6940     1.0950    -5.1100 hc         1 1YN       0.014033
     58 H10          6.2430     1.4410    -4.3290 hc         1 1YN       0.014033
     59 H11          0.6120     0.5530    -2.6540 h5         1 1YN       0.039800
     60 H12         -1.7730    -0.0010     1.1960 ha         1 1YN       0.122500
     61 H13          1.9370    -0.0020     3.3360 ha         1 1YN       0.122500
     62 H14          3.1670     0.0000     1.2010 ha         1 1YN       0.139000
     63 H15          0.8150     0.9120     4.7430 h1         1 1YN       0.025700
     64 H16          0.8920    -0.8580     4.6800 h1         1 1YN       0.025700
     65 H17         -1.1340    -1.0070     6.0720 h1         1 1YN       0.025950
     66 H18          0.1110    -0.0520     6.8970 h1         1 1YN       0.025950
     67 H19         -3.0770     1.9150     5.0580 h1         1 1YN       0.025950
     68 H20         -3.0010     0.1460     4.9950 h1         1 1YN       0.025950
     69 H21         -2.2970     1.1090     2.8420 h1         1 1YN       0.025700
     70 H22         -1.0510     2.0620     3.6680 h1         1 1YN       0.025700
     71 H23         -1.2330    -0.7190     8.0720 ha         1 1YN       0.117000
     72 H24         -2.4570    -0.7120    10.2100 ha         1 1YN       0.116500
     73 H25         -4.5260     2.8380     9.0170 ha         1 1YN       0.116500
     74 H26         -3.3040     2.8340     6.8780 ha         1 1YN       0.117000
     75 H27         -5.9400     2.0900    10.3630 h1         1 1YN       0.009200
     76 H28         -4.6650     3.0770    11.0900 h1         1 1YN       0.009200
     77 H29         -5.0910     1.9350    13.2920 h1         1 1YN       0.063700
     78 H30         -6.3740     3.9560    13.2140 h1         1 1YN       0.024200
     79 H31         -7.3710     3.3690    11.8480 h1         1 1YN       0.024200
     80 H32         -9.0010     1.5880    11.5260 h1         1 1YN       0.047700
     81 H33         -9.9670     1.1160    12.9310 h1         1 1YN       0.047700
     82 H34        -11.0850    -1.1320    12.4430 h5         1 1YN       0.024100
     83 H35         -7.9730    -3.1390    10.4450 h5         1 1YN       0.025100
     84 H36         -6.2120    -0.7890    17.1870 ha         1 1YN       0.129000
     85 H37        -10.1350    -1.9340    15.9370 ha         1 1YN       0.120000
     86 H38         -9.9380    -0.4590    13.9710 ha         1 1YN       0.120000
     87 H5           6.1400    -1.2040    -4.6820 hc         1 1YN       0.029200
@<TRIPOS>BOND
     1     1     2 ar  
     2     1    13 ar  
     3     1    50 1   
     4     2    10 1   
     5     2    16 ar  
     6     3     4 1   
     7     3    51 1   
     8     3    52 1   
     9     3    53 1   
    10     4     5 1   
    11     4    54 1   
    12     4    87 1   
    13     5     6 1   
    14     5     7 1   
    15     5    55 1   
    16     6    56 1   
    17     6    57 1   
    18     6    58 1   
    19     7     8 1   
    20     7    12 1   
    21     8     9 2   
    22     8    10 1   
    23    10    11 1   
    24    11    12 2   
    25    11    59 1   
    26    13    14 ar  
    27    13    60 1   
    28    14    15 ar  
    29    14    17 1   
    30    15    16 ar  
    31    15    61 1   
    32    16    62 1   
    33    17    18 1   
    34    17    22 1   
    35    18    19 1   
    36    18    63 1   
    37    18    64 1   
    38    19    20 1   
    39    19    65 1   
    40    19    66 1   
    41    20    21 1   
    42    20    23 1   
    43    21    22 1   
    44    21    67 1   
    45    21    68 1   
    46    22    69 1   
    47    22    70 1   
    48    23    24 ar  
    49    23    28 ar  
    50    24    25 ar  
    51    24    71 1   
    52    25    26 ar  
    53    25    72 1   
    54    26    27 ar  
    55    26    29 1   
    56    27    28 ar  
    57    27    73 1   
    58    28    74 1   
    59    29    30 1   
    60    30    31 1   
    61    30    75 1   
    62    30    76 1   
    63    31    32 1   
    64    31    35 1   
    65    31    77 1   
    66    32    33 1   
    67    32    78 1   
    68    32    79 1   
    69    33    34 1   
    70    34    35 1   
    71    34    36 1   
    72    34    42 1   
    73    36    37 1   
    74    36    80 1   
    75    36    81 1   
    76    37    38 1   
    77    37    41 1   
    78    38    39 2   
    79    38    82 1   
    80    39    40 1   
    81    40    41 2   
    82    40    83 1   
    83    42    43 ar  
    84    42    47 ar  
    85    43    44 ar  
    86    43    49 1   
    87    44    45 ar  
    88    44    84 1   
    89    45    46 ar  
    90    45    48 1   
    91    46    47 ar  
    92    46    85 1   
    93    47    86 1   
@<TRIPOS>SUBSTRUCTURE
     1 1YN         1 TEMP              0 ****  ****    0 ROOT
