@<TRIPOS>MOLECULE
1YN
   87    93     1     0     0
SMALL
bcc


@<TRIPOS>ATOM
      1 C12         -0.1430     1.0900    -0.3350 ca         1 1YN      -0.124500
      2 C11          1.2030     0.6700    -0.3030 ca         1 1YN       0.037600
      3 C01          3.1200    -0.4420    -6.4550 c3         1 1YN      -0.093100
      4 C02          3.2600    -1.6670    -5.5920 c3         1 1YN      -0.075400
      5 C03          2.2440    -1.6990    -4.4430 c3         1 1YN       0.110700
      6 C04          2.2680    -3.0800    -3.7920 c3         1 1YN      -0.124100
      7 N05          2.4430    -0.5880    -3.4990 n          1 1YN      -0.175800
      8 C06          1.3050    -0.1490    -2.7010 c          1 1YN       0.737500
      9 O07          0.1180    -0.1080    -3.0510 o          1 1YN      -0.601500
     10 N08          1.8880     0.3930    -1.5000 n          1 1YN      -0.293500
     11 C09          3.2780     0.1150    -1.6070 cc         1 1YN       0.350800
     12 N10          3.5850    -0.4800    -2.7610 n2         1 1YN      -0.489300
     13 C13         -0.8100     1.4120     0.8390 ca         1 1YN      -0.147500
     14 C14         -0.1730     1.3240     2.0950 ca         1 1YN       0.122600
     15 C15          1.1740     0.8940     2.1180 ca         1 1YN      -0.147500
     16 C16          1.8450     0.5700     0.9490 ca         1 1YN      -0.124500
     17 N17         -0.8490     1.5620     3.3200 nh         1 1YN      -0.634000
     18 C18         -0.2200     2.5410     4.1950 c3         1 1YN       0.181800
     19 C19         -0.8820     2.5920     5.5890 c3         1 1YN       0.182300
     20 N20         -2.3230     2.7620     5.5090 nh         1 1YN      -0.636000
     21 C21         -2.9530     1.7860     4.6300 c3         1 1YN       0.182300
     22 C22         -2.2890     1.7350     3.2360 c3         1 1YN       0.181800
     23 C23         -2.9990     3.0030     6.7320 ca         1 1YN       0.129600
     24 C24         -4.3550     3.4150     6.7040 ca         1 1YN      -0.148500
     25 C25         -5.0240     3.7490     7.8720 ca         1 1YN      -0.130000
     26 C26         -4.3560     3.6730     9.1020 ca         1 1YN       0.060100
     27 C27         -3.0200     3.2650     9.1580 ca         1 1YN      -0.130000
     28 C28         -2.3510     2.9310     7.9850 ca         1 1YN      -0.148500
     29 O29         -5.1030     3.9140    10.2490 os         1 1YN      -0.350900
     30 C30         -4.5270     4.8510    11.1640 c3         1 1YN       0.110400
     31 C31         -5.3980     6.1010    11.2760 c3         1 1YN       0.098100
     32 C32         -5.8240     6.7210     9.9460 c3         1 1YN       0.108400
     33 O33         -7.2510     6.7950    10.0040 os         1 1YN      -0.417600
     34 C34         -7.7510     5.9970    11.0810 c3         1 1YN       0.388900
     35 O35         -6.6260     5.7770    11.9420 os         1 1YN      -0.429600
     36 C36         -8.2310     4.6410    10.4830 c3         1 1YN       0.027300
     37 N37         -8.5530     3.6320    11.4590 na         1 1YN      -0.051400
     38 C38         -7.6220     2.7320    12.0280 cc         1 1YN       0.419400
     39 N39         -8.2500     1.9590    12.9360 nd         1 1YN      -0.695000
     40 C40         -9.5780     2.4270    12.9040 cd         1 1YN       0.497900
     41 N41         -9.7650     3.4440    12.0170 nc         1 1YN      -0.516800
     42 C42         -8.8350     6.7300    11.8290 ca         1 1YN      -0.086300
     43 C43         -9.9440     7.3110    11.1950 ca         1 1YN       0.059400
     44 C44        -10.9290     7.9690    11.9440 ca         1 1YN      -0.131000
     45 C45        -10.8080     8.0420    13.3320 ca         1 1YN       0.036400
     46 C46         -9.7130     7.4620    13.9790 ca         1 1YN      -0.131000
     47 C47         -8.7390     6.8150    13.2250 ca         1 1YN      -0.077000
     48 Cl8        -12.0020     8.8410    14.2380 cl         1 1YN      -0.084400
     49 Cl9        -10.1780     7.2550     9.5100 cl         1 1YN      -0.076400
     50 H1          -0.6800     1.1600    -1.2980 ha         1 1YN       0.152000
     51 H2           3.8010    -0.5190    -7.3380 hc         1 1YN       0.039033
     52 H3           2.0720    -0.3340    -6.8260 hc         1 1YN       0.039033
     53 H4           3.3880     0.4810    -5.8870 hc         1 1YN       0.039033
     54 H6           3.0790    -2.5850    -6.2130 hc         1 1YN       0.052700
     55 H7           1.2090    -1.5140    -4.8680 h1         1 1YN       0.085700
     56 H8           3.2870    -3.3220    -3.4050 hc         1 1YN       0.048033
     57 H9           1.5390    -3.1380    -2.9490 hc         1 1YN       0.048033
     58 H10          1.9850    -3.8450    -4.5540 hc         1 1YN       0.048033
     59 H11          4.0010     0.4070    -0.8370 h5         1 1YN       0.081800
     60 H12         -1.8580     1.7420     0.7600 ha         1 1YN       0.140500
     61 H13          1.7080     0.7900     3.0750 ha         1 1YN       0.140500
     62 H14          2.8890     0.2270     1.0200 ha         1 1YN       0.152000
     63 H15         -0.2500     3.5740     3.7410 h1         1 1YN       0.048450
     64 H16          0.8580     2.2550     4.3450 h1         1 1YN       0.048450
     65 H17         -0.4520     3.4780     6.1350 h1         1 1YN       0.047700
     66 H18         -0.6040     1.6550     6.1540 h1         1 1YN       0.047700
     67 H19         -2.9250     0.7530     5.0830 h1         1 1YN       0.047700
     68 H20         -4.0300     2.0730     4.4780 h1         1 1YN       0.047700
     69 H21         -2.7210     0.8510     2.6890 h1         1 1YN       0.048450
     70 H22         -2.5650     2.6740     2.6720 h1         1 1YN       0.048450
     71 H23         -4.8930     3.4930     5.7460 ha         1 1YN       0.141000
     72 H24         -6.0790     4.0620     7.8430 ha         1 1YN       0.143500
     73 H25         -2.5040     3.1930    10.1270 ha         1 1YN       0.143500
     74 H26         -1.3030     2.6030     8.0610 ha         1 1YN       0.141000
     75 H27         -4.5130     4.3190    12.1540 h1         1 1YN       0.068200
     76 H28         -3.4890     5.1470    10.8650 h1         1 1YN       0.068200
     77 H29         -4.8760     6.8410    11.9430 h1         1 1YN       0.080700
     78 H30         -5.4610     7.7700     9.8120 h1         1 1YN       0.070700
     79 H31         -5.5400     6.0830     9.0700 h1         1 1YN       0.070700
     80 H32         -7.3860     4.2420     9.8490 h1         1 1YN       0.093200
     81 H33         -9.1260     4.8500     9.8330 h1         1 1YN       0.093200
     82 H34         -6.5660     2.7120    11.7320 h5         1 1YN       0.083100
     83 H35        -10.3710     2.0060    13.5290 h5         1 1YN       0.069100
     84 H36        -11.7950     8.4220    11.4360 ha         1 1YN       0.162000
     85 H37         -9.6190     7.5130    15.0740 ha         1 1YN       0.153000
     86 H38         -7.8760     6.3570    13.7370 ha         1 1YN       0.162000
     87 H5           4.3030    -1.7360    -5.1870 hc         1 1YN       0.052700
@<TRIPOS>BOND
     1     1     2 ar  
     2     1    13 ar  
     3     1    50 1   
     4     2    10 1   
     5     2    16 ar  
     6     3     4 1   
     7     3    51 1   
     8     3    52 1   
     9     3    53 1   
    10     4     5 1   
    11     4    54 1   
    12     4    87 1   
    13     5     6 1   
    14     5     7 1   
    15     5    55 1   
    16     6    56 1   
    17     6    57 1   
    18     6    58 1   
    19     7     8 1   
    20     7    12 1   
    21     8     9 2   
    22     8    10 1   
    23    10    11 1   
    24    11    12 2   
    25    11    59 1   
    26    13    14 ar  
    27    13    60 1   
    28    14    15 ar  
    29    14    17 1   
    30    15    16 ar  
    31    15    61 1   
    32    16    62 1   
    33    17    18 1   
    34    17    22 1   
    35    18    19 1   
    36    18    63 1   
    37    18    64 1   
    38    19    20 1   
    39    19    65 1   
    40    19    66 1   
    41    20    21 1   
    42    20    23 1   
    43    21    22 1   
    44    21    67 1   
    45    21    68 1   
    46    22    69 1   
    47    22    70 1   
    48    23    24 ar  
    49    23    28 ar  
    50    24    25 ar  
    51    24    71 1   
    52    25    26 ar  
    53    25    72 1   
    54    26    27 ar  
    55    26    29 1   
    56    27    28 ar  
    57    27    73 1   
    58    28    74 1   
    59    29    30 1   
    60    30    31 1   
    61    30    75 1   
    62    30    76 1   
    63    31    32 1   
    64    31    35 1   
    65    31    77 1   
    66    32    33 1   
    67    32    78 1   
    68    32    79 1   
    69    33    34 1   
    70    34    35 1   
    71    34    36 1   
    72    34    42 1   
    73    36    37 1   
    74    36    80 1   
    75    36    81 1   
    76    37    38 1   
    77    37    41 1   
    78    38    39 2   
    79    38    82 1   
    80    39    40 1   
    81    40    41 2   
    82    40    83 1   
    83    42    43 ar  
    84    42    47 ar  
    85    43    44 ar  
    86    43    49 1   
    87    44    45 ar  
    88    44    84 1   
    89    45    46 ar  
    90    45    48 1   
    91    46    47 ar  
    92    46    85 1   
    93    47    86 1   
@<TRIPOS>SUBSTRUCTURE
     1 1YN         1 TEMP              0 ****  ****    0 ROOT
