@<TRIPOS>MOLECULE
molecule
   87    93     1     0     0
SMALL
bcc


@<TRIPOS>ATOM
      1 C12          0.0000     0.0000     0.0000 ca         1 1YN      -0.127000
      2 C11          1.3880     0.0000     0.0000 ca         1 1YN       0.039600
      3 C01          5.1580    -2.4930    -3.2720 c3         1 1YN      -0.095100
      4 C02          5.1920    -1.2480    -4.1590 c3         1 1YN      -0.099400
      5 C03          5.0300     0.0020    -3.2910 c3         1 1YN       0.161700
      6 C04          5.1900     1.2510    -4.1600 c3         1 1YN      -0.107100
      7 N05          3.7010     0.0010    -2.6760 n          1 1YN      -0.233800
      8 C06          3.4310     0.0010    -1.3540 c          1 1YN       0.765500
      9 O07          4.2490     0.0020    -0.4520 o          1 1YN      -0.660500
     10 N08          2.0900     0.0000    -1.2170 n          1 1YN      -0.290500
     11 C09          1.5260     0.0010    -2.4710 cc         1 1YN       0.360800
     12 N10          2.4740     0.0060    -3.3530 n2         1 1YN      -0.479300
     13 C13         -0.6900    -0.0010     1.1960 ca         1 1YN      -0.147000
     14 C14          0.0050    -0.0010     2.3990 ca         1 1YN       0.092600
     15 C15          1.3940    -0.0010     2.3980 ca         1 1YN      -0.147000
     16 C16          2.0840     0.0000     1.2020 ca         1 1YN      -0.127000
     17 N17         -0.6940    -0.0010     3.6100 nh         1 1YN      -0.597000
     18 C18          0.2320    -0.0020     4.7510 c3         1 1YN       0.162300
     19 C19         -0.5690    -0.0830     6.0540 c3         1 1YN       0.162300
     20 N20         -1.4930     1.0580     6.1290 nh         1 1YN      -0.597000
     21 C21         -2.4180     1.0590     4.9870 c3         1 1YN       0.162300
     22 C22         -1.6170     1.1390     3.6860 c3         1 1YN       0.162300
     23 C23         -2.1920     1.0570     7.3410 ca         1 1YN       0.065600
     24 C24         -1.9550     0.0610     8.2800 ca         1 1YN      -0.127500
     25 C25         -2.6410     0.0650     9.4780 ca         1 1YN      -0.165500
     26 C26         -3.5660     1.0640     9.7450 ca         1 1YN       0.122100
     27 C27         -3.8040     2.0590     8.8080 ca         1 1YN      -0.165500
     28 C28         -3.1180     2.0570     7.6090 ca         1 1YN      -0.127500
     29 O29         -4.2420     1.0670    10.9250 os         1 1YN      -0.311900
     30 C30         -5.1800     2.1250    11.1340 c3         1 1YN       0.143400
     31 C31         -5.8360     1.9610    12.5060 c3         1 1YN       0.097100
     32 C32         -6.8580     3.0980    12.7630 c3         1 1YN       0.096400
     33 O33         -7.7680     2.4690    13.6980 os         1 1YN      -0.398600
     34 C34         -7.8450     1.0980    13.2700 c3         1 1YN       0.363900
     35 O35         -6.6520     0.7730    12.5430 os         1 1YN      -0.359600
     36 C36         -9.0650     0.9090    12.3670 c3         1 1YN       0.052300
     37 N37         -9.1020    -0.4710    11.8780 na         1 1YN      -0.073400
     38 C38        -10.1270    -1.3350    11.9800 cc         1 1YN       0.430400
     39 N39         -9.7660    -2.4620    11.4220 nd         1 1YN      -0.757000
     40 C40         -8.5230    -2.3570    10.9550 cd         1 1YN       0.558900
     41 N41         -8.0760    -1.1550    11.2060 nc         1 1YN      -0.506800
     42 C42         -7.9650     0.1990    14.4730 ca         1 1YN      -0.085300
     43 C43         -6.9200     0.1080    15.3750 ca         1 1YN       0.079400
     44 C44         -7.0300    -0.7180    16.4800 ca         1 1YN      -0.121000
     45 C45         -8.1850    -1.4520    16.6810 ca         1 1YN       0.048400
     46 C46         -9.2290    -1.3610    15.7780 ca         1 1YN      -0.121000
     47 C47         -9.1210    -0.5310    14.6780 ca         1 1YN      -0.099000
     48 Cl8         -8.3230    -2.4890    18.0660 cl         1 1YN      -0.093400
     49 Cl9         -5.4700     1.0290    15.1220 cl         1 1YN      -0.086400
     50 H1          -0.5420     0.0010    -0.9380 ha         1 1YN       0.159000
     51 H2           4.1290    -2.7550    -3.0570 hc         1 1YN       0.039033
     52 H3           5.6400    -3.3160    -3.7850 hc         1 1YN       0.039033
     53 H4           5.6800    -2.2910    -2.3440 hc         1 1YN       0.039033
     54 H6           4.3840    -1.2950    -4.8790 hc         1 1YN       0.056200
     55 H7           5.7860     0.0030    -2.5150 h1         1 1YN       0.089700
     56 H8           4.7460     2.1010    -3.6560 hc         1 1YN       0.047033
     57 H9           4.6940     1.0950    -5.1100 hc         1 1YN       0.047033
     58 H10          6.2430     1.4410    -4.3290 hc         1 1YN       0.047033
     59 H11          0.6120     0.5530    -2.6540 h5         1 1YN       0.086800
     60 H12         -1.7730    -0.0010     1.1960 ha         1 1YN       0.143000
     61 H13          1.9370    -0.0020     3.3360 ha         1 1YN       0.143000
     62 H14          3.1670     0.0000     1.2010 ha         1 1YN       0.159000
     63 H15          0.8150     0.9120     4.7430 h1         1 1YN       0.051950
     64 H16          0.8920    -0.8580     4.6800 h1         1 1YN       0.051950
     65 H17         -1.1340    -1.0070     6.0720 h1         1 1YN       0.051950
     66 H18          0.1110    -0.0520     6.8970 h1         1 1YN       0.051950
     67 H19         -3.0770     1.9150     5.0580 h1         1 1YN       0.051950
     68 H20         -3.0010     0.1460     4.9950 h1         1 1YN       0.051950
     69 H21         -2.2970     1.1090     2.8420 h1         1 1YN       0.051950
     70 H22         -1.0510     2.0620     3.6680 h1         1 1YN       0.051950
     71 H23         -1.2330    -0.7190     8.0720 ha         1 1YN       0.139000
     72 H24         -2.4570    -0.7120    10.2100 ha         1 1YN       0.139000
     73 H25         -4.5260     2.8380     9.0170 ha         1 1YN       0.139000
     74 H26         -3.3040     2.8340     6.8780 ha         1 1YN       0.139000
     75 H27         -5.9400     2.0900    10.3630 h1         1 1YN       0.043700
     76 H28         -4.6650     3.0770    11.0900 h1         1 1YN       0.043700
     77 H29         -5.0910     1.9350    13.2920 h1         1 1YN       0.089700
     78 H30         -6.3740     3.9560    13.2140 h1         1 1YN       0.066700
     79 H31         -7.3710     3.3690    11.8480 h1         1 1YN       0.066700
     80 H32         -9.0010     1.5880    11.5260 h1         1 1YN       0.075200
     81 H33         -9.9670     1.1160    12.9310 h1         1 1YN       0.075200
     82 H34        -11.0850    -1.1320    12.4430 h5         1 1YN       0.065100
     83 H35         -7.9730    -3.1390    10.4450 h5         1 1YN       0.082100
     84 H36         -6.2120    -0.7890    17.1870 ha         1 1YN       0.161000
     85 H37        -10.1350    -1.9340    15.9370 ha         1 1YN       0.151000
     86 H38         -9.9380    -0.4590    13.9710 ha         1 1YN       0.140000
     87 H5           6.1400    -1.2040    -4.6820 hc         1 1YN       0.056200
@<TRIPOS>BOND
     1    48    45 1   
     2    45    44 ar  
     3    45    46 ar  
     4    44    43 ar  
     5    46    47 ar  
     6    43    49 1   
     7    43    42 ar  
     8    47    42 ar  
     9    42    34 1   
    10    33    32 1   
    11    33    34 1   
    12    32    31 1   
    13    34    35 1   
    14    34    36 1   
    15    31    35 1   
    16    31    30 1   
    17    36    37 1   
    18    29    30 1   
    19    29    26 1   
    20    37    41 1   
    21    37    38 1   
    22    41    40 2   
    23    25    26 ar  
    24    25    24 ar  
    25    26    27 ar  
    26    40    39 1   
    27     3     4 1   
    28    38    39 2   
    29    24    23 ar  
    30    27    28 ar  
    31    23    28 ar  
    32    23    20 1   
    33     4     5 1   
    34    20    19 1   
    35    20    21 1   
    36    18    19 1   
    37    18    17 1   
    38     1    13 ar  
    39     1     2 ar  
    40    13    14 ar  
    41    22    21 1   
    42    22    17 1   
    43    12    11 2   
    44    12     7 1   
    45    11    10 1   
    46     5     7 1   
    47     5     6 1   
    48     7     8 1   
    49     2    10 1   
    50     2    16 ar  
    51     9     8 2   
    52    14    17 1   
    53    14    15 ar  
    54    10     8 1   
    55    16    15 ar  
    56     1    50 1   
    57     3    51 1   
    58     3    52 1   
    59     3    53 1   
    60     4    87 1   
    61     4    54 1   
    62     5    55 1   
    63     6    56 1   
    64     6    57 1   
    65     6    58 1   
    66    11    59 1   
    67    13    60 1   
    68    15    61 1   
    69    16    62 1   
    70    18    63 1   
    71    18    64 1   
    72    19    65 1   
    73    19    66 1   
    74    21    67 1   
    75    21    68 1   
    76    22    69 1   
    77    22    70 1   
    78    24    71 1   
    79    25    72 1   
    80    27    73 1   
    81    28    74 1   
    82    30    75 1   
    83    30    76 1   
    84    31    77 1   
    85    32    78 1   
    86    32    79 1   
    87    36    80 1   
    88    36    81 1   
    89    38    82 1   
    90    40    83 1   
    91    44    84 1   
    92    46    85 1   
    93    47    86 1   
@<TRIPOS>SUBSTRUCTURE
     1 1YN         1 TEMP              0 ****  ****    0 ROOT
