@<TRIPOS>MOLECULE
1YO
   27    28     1     0     0
SMALL
bcc


@<TRIPOS>ATOM
      1 CAA          0.0000     0.0000     0.0000 c3         1 1YO       0.046200
      2 CAC          3.7760     0.0000     0.0000 ca         1 1YO      -0.088000
      3 CAD          4.0520     0.0000     1.3540 ca         1 1YO      -0.109000
      4 CAE          2.4650    -0.0010    -0.4380 ca         1 1YO      -0.103000
      5 CAF          3.0160    -0.0050     2.2700 ca         1 1YO      -0.076000
      6 CAG         -2.7910    -1.7350     5.8020 cc         1 1YO       0.190400
      7 CAH          0.5780    -0.0230     2.8310 c3         1 1YO       0.163000
      8 CAL          1.4300    -0.0000     0.4780 ca         1 1YO      -0.065300
      9 CAM          1.7050    -0.0110     1.8330 ca         1 1YO      -0.095300
     10 CAN         -1.1710    -1.4580     4.3710 cc         1 1YO       0.303800
     11 NAI         -2.5760    -0.4630     5.6190 nd         1 1YO      -0.309000
     12 NAJ         -1.6220    -0.2930     4.7760 nd         1 1YO      -0.347000
     13 NAO         -1.9000    -2.4140     5.0180 na         1 1YO       0.284500
     14 SAK          0.1310    -1.7330     3.2170 ss         1 1YO      -0.383400
     15 HAC         -0.0190    -0.0760    -1.0800 hc         1 1YO       0.015700
     16 HAA         -0.4830     0.9200     0.3060 hc         1 1YO       0.015700
     17 HAB         -0.5250    -0.8440     0.4310 hc         1 1YO       0.015700
     18 HAD          4.5880     0.0020    -0.7180 ha         1 1YO       0.102000
     19 HAE          5.0790     0.0030     1.6980 ha         1 1YO       0.105000
     20 HAF          2.2480    -0.0010    -1.5000 ha         1 1YO       0.108000
     21 HAG          3.2330    -0.0050     3.3320 ha         1 1YO       0.110000
     22 HAH         -3.5330    -2.1740     6.4580 h5         1 1YO       0.035100
     23 HAI          0.8920     0.4800     3.7370 h1         1 1YO       0.058700
     24 HAJ         -0.2810     0.4890     2.4130 h1         1 1YO       0.058700
     25 HAL         -1.1530    -4.2680     5.5080 hn         1 1YO       0.307300
     26 HAK         -2.3050    -4.2640     4.2120 hn         1 1YO       0.307300
     27 NAB         -1.7710    -3.7690     4.8990 nv         1 1YO      -0.650100
@<TRIPOS>BOND
     1     1     8 1   
     2     1    15 1   
     3     1    16 1   
     4     1    17 1   
     5     2     3 ar  
     6     2     4 ar  
     7     2    18 1   
     8     3     5 ar  
     9     3    19 1   
    10     4     8 ar  
    11     4    20 1   
    12     5     9 ar  
    13     5    21 1   
    14     6    11 2   
    15     6    13 1   
    16     6    22 1   
    17     7     9 1   
    18     7    14 1   
    19     7    23 1   
    20     7    24 1   
    21     8     9 ar  
    22    10    12 2   
    23    10    13 1   
    24    10    14 1   
    25    11    12 1   
    26    13    27 1   
    27    25    27 1   
    28    26    27 1   
@<TRIPOS>SUBSTRUCTURE
     1 1YO         1 TEMP              0 ****  ****    0 ROOT
