@<TRIPOS>MOLECULE
molecule
   27    28     1     0     0
SMALL
bcc


@<TRIPOS>ATOM
      1 CAA          0.0000     0.0000     0.0000 c3         1 1YO      -0.054800
      2 CAC          3.7760     0.0000     0.0000 ca         1 1YO      -0.116000
      3 CAD          4.0520     0.0000     1.3540 ca         1 1YO      -0.135000
      4 CAE          2.4650    -0.0010    -0.4380 ca         1 1YO      -0.129000
      5 CAF          3.0160    -0.0050     2.2700 ca         1 1YO      -0.106000
      6 CAG         -2.7910    -1.7350     5.8020 cc         1 1YO       0.354400
      7 CAH          0.5780    -0.0230     2.8310 c3         1 1YO       0.051000
      8 CAL          1.4300    -0.0000     0.4780 ca         1 1YO      -0.062300
      9 CAM          1.7050    -0.0110     1.8330 ca         1 1YO      -0.090300
     10 CAN         -1.1710    -1.4580     4.3710 cc         1 1YO       0.460800
     11 NAI         -2.5760    -0.4630     5.6190 nd         1 1YO      -0.344000
     12 NAJ         -1.6220    -0.2930     4.7760 nd         1 1YO      -0.370000
     13 NAO         -1.9000    -2.4140     5.0180 na         1 1YO      -0.085500
     14 SAK          0.1310    -1.7330     3.2170 ss         1 1YO      -0.266400
     15 HAC         -0.0190    -0.0760    -1.0800 hc         1 1YO       0.048700
     16 HAA         -0.4830     0.9200     0.3060 hc         1 1YO       0.048700
     17 HAB         -0.5250    -0.8440     0.4310 hc         1 1YO       0.048700
     18 HAD          4.5880     0.0020    -0.7180 ha         1 1YO       0.131000
     19 HAE          5.0790     0.0030     1.6980 ha         1 1YO       0.132000
     20 HAF          2.2480    -0.0010    -1.5000 ha         1 1YO       0.133000
     21 HAG          3.2330    -0.0050     3.3320 ha         1 1YO       0.136000
     22 HAH         -3.5330    -2.1740     6.4580 h5         1 1YO       0.077100
     23 HAI          0.8920     0.4800     3.7370 h1         1 1YO       0.086700
     24 HAJ         -0.2810     0.4890     2.4130 h1         1 1YO       0.086700
     25 HAL         -1.1530    -4.2680     5.5080 hn         1 1YO       0.456800
     26 HAK         -2.3050    -4.2640     4.2120 hn         1 1YO       0.456800
     27 NAB         -1.7710    -3.7690     4.8990 nv         1 1YO      -0.946100
@<TRIPOS>BOND
     1    27    13 1   
     2    13     6 1   
     3    13    10 1   
     4    14    10 1   
     5    14     7 1   
     6     6    11 2   
     7     1     8 1   
     8    10    12 2   
     9     8     4 ar  
    10     8     9 ar  
    11     4     2 ar  
    12     9     7 1   
    13     9     5 ar  
    14     2     3 ar  
    15    11    12 1   
    16     5     3 ar  
    17     1    15 1   
    18     1    16 1   
    19     1    17 1   
    20     2    18 1   
    21     3    19 1   
    22     4    20 1   
    23     5    21 1   
    24     6    22 1   
    25     7    23 1   
    26     7    24 1   
    27    27    25 1   
    28    27    26 1   
@<TRIPOS>SUBSTRUCTURE
     1 1YO         1 TEMP              0 ****  ****    0 ROOT
