@<TRIPOS>MOLECULE
1YO
   27    28     1     0     0
SMALL
bcc


@<TRIPOS>ATOM
      1 CAA          0.1010     1.0860    -0.2040 c3         1 1YO      -0.063800
      2 CAC          3.5420    -0.4610    -0.0220 ca         1 1YO      -0.113000
      3 CAD          3.6830    -0.6870     1.3480 ca         1 1YO      -0.138000
      4 CAE          2.3740     0.1130    -0.5150 ca         1 1YO      -0.135000
      5 CAF          2.6530    -0.3370     2.2160 ca         1 1YO      -0.105000
      6 CAG         -3.6310    -0.3360     5.2600 cc         1 1YO       0.405400
      7 CAH          0.4080     0.6170     2.6840 c3         1 1YO       0.047000
      8 CAL          1.3300     0.4690     0.3470 ca         1 1YO      -0.049300
      9 CAM          1.4710     0.2380     1.7280 ca         1 1YO      -0.100300
     10 CAN         -1.8310    -0.3080     3.9180 cc         1 1YO       0.395800
     11 NAI         -3.0540     0.8890     5.2990 nd         1 1YO      -0.349000
     12 NAJ         -1.9940     0.9130     4.5110 nd         1 1YO      -0.356000
     13 NAO         -2.8800    -1.1560     4.3810 na         1 1YO      -0.194500
     14 SAK         -0.6470    -0.8150     2.8330 ss         1 1YO      -0.248400
     15 HAC          0.0360     2.1600     0.1070 hc         1 1YO       0.051367
     16 HAA         -0.8090     0.5550     0.1750 hc         1 1YO       0.051367
     17 HAB          0.0930     1.0450    -1.3210 hc         1 1YO       0.051367
     18 HAD          4.3540    -0.7360    -0.7120 ha         1 1YO       0.134000
     19 HAE          4.6050    -1.1380     1.7420 ha         1 1YO       0.136000
     20 HAF          2.2670     0.2910    -1.5960 ha         1 1YO       0.135000
     21 HAG          2.7650    -0.5120     3.2980 ha         1 1YO       0.137000
     22 HAH         -4.5200    -0.6830     5.7940 h5         1 1YO       0.083100
     23 HAI         -0.1830     1.4960     2.3240 h1         1 1YO       0.092700
     24 HAJ          0.8310     0.8800     3.6850 h1         1 1YO       0.092700
     25 HAL         -2.3440    -3.0190     4.3330 hn         1 1YO       0.368300
     26 HAK         -3.2900    -2.5370     3.0830 hn         1 1YO       0.368300
     27 NAB         -3.1460    -2.4490     4.0840 nv         1 1YO      -0.697100
@<TRIPOS>BOND
     1     1     8 1   
     2     1    15 1   
     3     1    16 1   
     4     1    17 1   
     5     2     3 ar  
     6     2     4 ar  
     7     2    18 1   
     8     3     5 ar  
     9     3    19 1   
    10     4     8 ar  
    11     4    20 1   
    12     5     9 ar  
    13     5    21 1   
    14     6    11 2   
    15     6    13 1   
    16     6    22 1   
    17     7     9 1   
    18     7    14 1   
    19     7    23 1   
    20     7    24 1   
    21     8     9 ar  
    22    10    12 2   
    23    10    13 1   
    24    10    14 1   
    25    11    12 1   
    26    13    27 1   
    27    25    27 1   
    28    26    27 1   
@<TRIPOS>SUBSTRUCTURE
     1 1YO         1 TEMP              0 ****  ****    0 ROOT
