@<TRIPOS>MOLECULE
1YP
   47    50     1     0     0
SMALL
bcc


@<TRIPOS>ATOM
      1 C1           0.0000     0.0000     0.0000 c3         1 1YP      -0.009100
      2 C2           1.5300     0.0000     0.0000 c3         1 1YP       0.067000
      3 C3           3.3430     0.0000     1.6280 c          1 1YP       0.551100
      4 N6          13.4340     2.8350     1.6440 ns         1 1YP       0.050100
      5 C7           7.8470    -0.3240     3.6070 cp         1 1YP      -0.190300
      6 C8           7.2970    -0.4200     2.3330 ca         1 1YP       0.452200
      7 C9           9.3090    -0.4480     3.8060 cp         1 1YP      -0.173300
      8 C10         10.1860     0.4510     3.1970 ca         1 1YP      -0.002000
      9 C11         11.5570     0.2900     3.4180 ca         1 1YP      -0.247200
     10 C12         11.9930    -0.7560     4.2340 ca         1 1YP       0.447200
     11 C13          9.8310    -1.4620     4.6110 ca         1 1YP       0.450200
     12 C14         12.5310     1.2130     2.7970 cc         1 1YP       0.607200
     13 C15         14.4330     2.1480     2.2380 c          1 1YP       0.722600
     14 C16          7.5250     0.0150     6.0770 cc         1 1YP       0.513900
     15 N1           2.0170     0.0000     1.3810 ns         1 1YP      -0.223900
     16 O1           4.1330     0.0010     0.7040 o          1 1YP      -0.635100
     17 N2           3.7920     0.0000     2.8990 ns         1 1YP      -0.126400
     18 C4           5.1570    -0.1070     3.1550 ca         1 1YP       0.386200
     19 C5           5.6190     0.0070     4.4590 ca         1 1YP      -0.238300
     20 C6           6.9890    -0.1010     4.7060 ca         1 1YP      -0.058500
     21 N3           5.9960    -0.3110     2.1500 nb         1 1YP      -0.538000
     22 N4          11.1300    -1.5830     4.7900 nb         1 1YP      -0.581000
     23 N5          12.2330     2.2170     2.0230 nd         1 1YP      -0.614300
     24 O2          15.6230     2.3870     2.1500 o          1 1YP      -0.646500
     25 O3          13.8720     1.1510     2.9420 os         1 1YP      -0.363700
     26 N7           6.8120     0.0650     7.1660 nd         1 1YP      -0.505000
     27 C17          7.4620     0.1680     8.3010 cd         1 1YP       0.211600
     28 C18          8.7960     0.2100     8.2070 cc         1 1YP      -0.043400
     29 S1           9.2330     0.1000     6.5030 ss         1 1YP      -0.279300
     30 F1           7.2360    -0.7720    10.4690 f          1 1YP      -0.202633
     31 F2           6.9770     1.4830    10.2160 f          1 1YP      -0.202633
     32 F3           5.3770     0.0550     9.4290 f          1 1YP      -0.202633
     33 H1          -0.3610     0.8840     0.5110 hc         1 1YP       0.008033
     34 H2          -0.3610    -0.8850     0.5100 hc         1 1YP       0.008033
     35 H3          -0.3610     0.0010    -1.0210 hc         1 1YP       0.008033
     36 H4           1.8910    -0.8850    -0.5110 h1         1 1YP       0.025200
     37 H5           1.8910     0.8850    -0.5110 h1         1 1YP       0.025200
     38 H6          13.5320     3.6350     1.0510 hn         1 1YP       0.235500
     39 H7           7.9450    -0.5870     1.4820 h4         1 1YP      -0.009900
     40 H8           9.8150     1.2520     2.5690 ha         1 1YP       0.138000
     41 H9          13.0530    -0.8900     4.4100 h4         1 1YP      -0.004900
     42 H10          9.1580    -2.1650     5.0870 h4         1 1YP      -0.005900
     43 H11          1.3670    -0.0020     2.1420 hn         1 1YP       0.166500
     44 H12          3.1450     0.0780     3.6580 hn         1 1YP       0.166500
     45 H13          4.9260     0.1790     5.2740 ha         1 1YP       0.137000
     46 H14          9.4890     0.2930     9.0360 h4         1 1YP       0.169000
     47 C19          6.7500     0.2350     9.6270 c3         1 1YP       0.558600
@<TRIPOS>BOND
     1     1     2 1   
     2     1    33 1   
     3     1    34 1   
     4     1    35 1   
     5     2    15 1   
     6     2    36 1   
     7     2    37 1   
     8     3    15 1   
     9     3    16 2   
    10     3    17 1   
    11     4    13 1   
    12     4    23 1   
    13     4    38 1   
    14     5     6 ar  
    15     5     7 1   
    16     5    20 ar  
    17     6    21 ar  
    18     6    39 1   
    19     7     8 ar  
    20     7    11 ar  
    21     8     9 ar  
    22     8    40 1   
    23     9    10 ar  
    24     9    12 1   
    25    10    22 ar  
    26    10    41 1   
    27    11    22 ar  
    28    11    42 1   
    29    12    23 2   
    30    12    25 1   
    31    13    24 2   
    32    13    25 1   
    33    14    20 1   
    34    14    26 2   
    35    14    29 1   
    36    15    43 1   
    37    17    18 1   
    38    17    44 1   
    39    18    19 ar  
    40    18    21 ar  
    41    19    20 ar  
    42    19    45 1   
    43    26    27 1   
    44    27    28 2   
    45    27    47 1   
    46    28    29 1   
    47    28    46 1   
    48    30    47 1   
    49    31    47 1   
    50    32    47 1   
@<TRIPOS>SUBSTRUCTURE
     1 1YP         1 TEMP              0 ****  ****    0 ROOT
