@<TRIPOS>MOLECULE
1YP
   48    51     1     0     0
SMALL
bcc


@<TRIPOS>ATOM
      1 C1           0.2020     0.2740    -0.4810 c3         1 1YP      -0.139100
      2 C2           1.5230     0.4860     0.2280 c3         1 1YP       0.109800
      3 C3           2.9990    -0.1500     2.1690 c          1 1YP       0.647100
      4 N6           8.7920     5.7950    10.0260 ns         1 1YP      -0.290900
      5 C7           6.3700     1.3270     5.5700 cp         1 1YP      -0.089300
      6 C8           5.2210     0.4910     5.6520 ca         1 1YP       0.434200
      7 C9           7.2640     1.3830     6.7180 cp         1 1YP      -0.212300
      8 C10          7.5330     2.5940     7.3740 ca         1 1YP      -0.032000
      9 C11          8.3630     2.5760     8.5030 ca         1 1YP      -0.224200
     10 C12          8.8970     1.3370     8.9370 ca         1 1YP       0.462200
     11 C13          7.8400     0.1990     7.2340 ca         1 1YP       0.434200
     12 C14          8.6660     3.7910     9.2240 cc         1 1YP       0.535200
     13 C15          9.6350     4.9990    10.8560 c          1 1YP       0.775600
     14 C16          7.7130     2.9220     4.1600 cc         1 1YP       0.354900
     15 N1           1.5940    -0.2280     1.5370 ny         1 1YP      -0.681800
     16 O1           3.5870    -1.2290     2.1660 o          1 1YP      -0.442100
     17 N2           3.4620     1.0950     2.5470 ns         1 1YP      -0.478400
     18 C4           4.4730     1.1490     3.5730 ca         1 1YP       0.430200
     19 C5           5.5900     1.9820     3.3690 ca         1 1YP      -0.159300
     20 C6           6.5570     2.0630     4.3920 ca         1 1YP      -0.056500
     21 N3           4.2900     0.3950     4.7010 nb         1 1YP      -0.671000
     22 N4           8.6420     0.1740     8.3130 nb         1 1YP      -0.649000
     23 N5           8.2840     5.0550     9.0210 nd         1 1YP      -0.461300
     24 O2          10.3100     5.2050    11.8520 o          1 1YP      -0.526500
     25 O3           9.5080     3.6810    10.3620 os         1 1YP      -0.412700
     26 N7           7.5890     4.2230     3.8410 nd         1 1YP      -0.567000
     27 C17          8.8490     4.7510     3.6340 cd         1 1YP       0.243600
     28 C18          9.9050     3.8510     3.7880 cc         1 1YP      -0.208400
     29 S1           9.3330     2.3560     4.1960 ss         1 1YP       0.078700
     30 F1          10.3210     6.5890     3.0740 f          1 1YP      -0.221633
     31 F2           8.3780     6.5700     2.0990 f          1 1YP      -0.221633
     32 F3           8.5340     7.0890     4.2060 f          1 1YP      -0.221633
     33 C19          9.0140     6.2200     3.2620 c3         1 1YP       0.629600
     34 H1          -0.6580     0.6610     0.1180 hc         1 1YP       0.082700
     35 H2           0.2340     0.8370    -1.4490 hc         1 1YP       0.082700
     36 H3           0.0260    -0.8050    -0.7150 hc         1 1YP       0.082700
     37 H4           1.6850     1.5860     0.4190 hx         1 1YP       0.107700
     38 H5           2.3720     0.1030    -0.4110 hx         1 1YP       0.107700
     39 H6           8.9580     6.7650     9.8540 hn         1 1YP       0.375500
     40 H7           5.0480    -0.1260     6.5570 h4         1 1YP       0.057100
     41 H8           7.0930     3.5380     7.0100 ha         1 1YP       0.173000
     42 H9           9.5550     1.2880     9.8280 h4         1 1YP       0.064100
     43 H10          7.6500    -0.7790     6.7540 h4         1 1YP       0.035100
     44 H11          1.3950    -1.2280     1.3870 hn         1 1YP       0.463300
     45 H12          2.8360     1.8760     2.5520 hn         1 1YP       0.338500
     46 H13          5.7150     2.5690     2.4450 ha         1 1YP       0.180000
     47 H14         10.9580     4.1130     3.6540 h4         1 1YP       0.215000
     48 H121         0.8900     0.1450     2.1790 hn         1 1YP       0.463300
@<TRIPOS>BOND
     1     1     2 1   
     2     1    34 1   
     3     1    35 1   
     4     1    36 1   
     5     2    15 1   
     6     2    37 1   
     7     2    38 1   
     8     3    15 1   
     9     3    16 2   
    10     3    17 1   
    11     4    13 1   
    12     4    23 1   
    13     4    39 1   
    14     5     6 ar  
    15     5     7 1   
    16     5    20 ar  
    17     6    21 ar  
    18     6    40 1   
    19     7     8 ar  
    20     7    11 ar  
    21     8     9 ar  
    22     8    41 1   
    23     9    10 ar  
    24     9    12 1   
    25    10    22 ar  
    26    10    42 1   
    27    11    22 ar  
    28    11    43 1   
    29    12    23 2   
    30    12    25 1   
    31    13    24 2   
    32    13    25 1   
    33    14    20 1   
    34    14    26 2   
    35    14    29 1   
    36    15    44 1   
    37    15    48 1   
    38    17    18 1   
    39    17    45 1   
    40    18    19 ar  
    41    18    21 ar  
    42    19    20 ar  
    43    19    46 1   
    44    26    27 1   
    45    27    28 2   
    46    27    33 1   
    47    28    29 1   
    48    28    47 1   
    49    30    33 1   
    50    31    33 1   
    51    32    33 1   
@<TRIPOS>SUBSTRUCTURE
     1 1YP         1 TEMP              0 ****  ****    0 ROOT
