@<TRIPOS>MOLECULE
molecule
   47    50     1     0     0
SMALL
bcc


@<TRIPOS>ATOM
      1 C1           0.0000     0.0000     0.0000 c3         1 1YP      -0.114100
      2 C2           1.5300     0.0000     0.0000 c3         1 1YP       0.128000
      3 C3           3.3430     0.0000     1.6280 c          1 1YP       0.769100
      4 N6          13.4340     2.8350     1.6440 ns         1 1YP      -0.347900
      5 C7           7.8470    -0.3240     3.6070 cp         1 1YP      -0.213300
      6 C8           7.2970    -0.4200     2.3330 ca         1 1YP       0.480200
      7 C9           9.3090    -0.4480     3.8060 cp         1 1YP      -0.180300
      8 C10         10.1860     0.4510     3.1970 ca         1 1YP      -0.032000
      9 C11         11.5570     0.2900     3.4180 ca         1 1YP      -0.238200
     10 C12         11.9930    -0.7560     4.2340 ca         1 1YP       0.463200
     11 C13          9.8310    -1.4620     4.6110 ca         1 1YP       0.452200
     12 C14         12.5310     1.2130     2.7970 cc         1 1YP       0.571200
     13 C15         14.4330     2.1480     2.2380 c          1 1YP       0.794600
     14 C16          7.5250     0.0150     6.0770 cc         1 1YP       0.510900
     15 N1           2.0170     0.0000     1.3810 ns         1 1YP      -0.604900
     16 O1           4.1330     0.0010     0.7040 o          1 1YP      -0.586100
     17 N2           3.7920     0.0000     2.8990 ns         1 1YP      -0.561400
     18 C4           5.1570    -0.1070     3.1550 ca         1 1YP       0.585200
     19 C5           5.6190     0.0070     4.4590 ca         1 1YP      -0.261300
     20 C6           6.9890    -0.1010     4.7060 ca         1 1YP      -0.046500
     21 N3           5.9960    -0.3110     2.1500 nb         1 1YP      -0.670000
     22 N4          11.1300    -1.5830     4.7900 nb         1 1YP      -0.683000
     23 N5          12.2330     2.2170     2.0230 nd         1 1YP      -0.490300
     24 O2          15.6230     2.3870     2.1500 o          1 1YP      -0.589500
     25 O3          13.8720     1.1510     2.9420 os         1 1YP      -0.381700
     26 N7           6.8120     0.0650     7.1660 nd         1 1YP      -0.638000
     27 C17          7.4620     0.1680     8.3010 cd         1 1YP       0.277600
     28 C18          8.7960     0.2100     8.2070 cc         1 1YP      -0.139400
     29 S1           9.2330     0.1000     6.5030 ss         1 1YP      -0.153300
     30 F1           7.2360    -0.7720    10.4690 f          1 1YP      -0.214633
     31 F2           6.9770     1.4830    10.2160 f          1 1YP      -0.214633
     32 F3           5.3770     0.0550     9.4290 f          1 1YP      -0.214633
     33 H1          -0.3610     0.8840     0.5110 hc         1 1YP       0.043700
     34 H2          -0.3610    -0.8850     0.5100 hc         1 1YP       0.043700
     35 H3          -0.3610     0.0010    -1.0210 hc         1 1YP       0.043700
     36 H4           1.8910    -0.8850    -0.5110 h1         1 1YP       0.055200
     37 H5           1.8910     0.8850    -0.5110 h1         1 1YP       0.055200
     38 H6          13.5320     3.6350     1.0510 hn         1 1YP       0.400500
     39 H7           7.9450    -0.5870     1.4820 h4         1 1YP       0.039100
     40 H8           9.8150     1.2520     2.5690 ha         1 1YP       0.171000
     41 H9          13.0530    -0.8900     4.4100 h4         1 1YP       0.047100
     42 H10          9.1580    -2.1650     5.0870 h4         1 1YP       0.043100
     43 H11          1.3670    -0.0020     2.1420 hn         1 1YP       0.306500
     44 H12          3.1450     0.0780     3.6580 hn         1 1YP       0.328500
     45 H13          4.9260     0.1790     5.2740 ha         1 1YP       0.163000
     46 H14          9.4890     0.2930     9.0360 h4         1 1YP       0.196000
     47 C19          6.7500     0.2350     9.6270 c3         1 1YP       0.604600
@<TRIPOS>BOND
     1     1     2 1   
     2     2    15 1   
     3    15     3 1   
     4     3    16 2   
     5     3    17 1   
     6    17    18 1   
     7    18    21 ar  
     8    18    19 ar  
     9    21     6 ar  
    10    19    20 ar  
    11    29    14 1   
    12    29    28 1   
    13     6     5 ar  
    14    20     5 ar  
    15    20    14 1   
    16     5     7 1   
    17    14    26 2   
    18    28    27 2   
    19    11     7 ar  
    20    11    22 ar  
    21     7     8 ar  
    22    26    27 1   
    23    22    10 ar  
    24    27    47 1   
    25     8     9 ar  
    26    10     9 ar  
    27    30    47 1   
    28    47    32 1   
    29    47    31 1   
    30     9    12 1   
    31    12    25 1   
    32    12    23 2   
    33    25    13 1   
    34    23     4 1   
    35    13     4 1   
    36    13    24 2   
    37     1    33 1   
    38     1    34 1   
    39     1    35 1   
    40     2    36 1   
    41     2    37 1   
    42     4    38 1   
    43     6    39 1   
    44     8    40 1   
    45    10    41 1   
    46    11    42 1   
    47    15    43 1   
    48    17    44 1   
    49    19    45 1   
    50    28    46 1   
@<TRIPOS>SUBSTRUCTURE
     1 1YP         1 TEMP              0 ****  ****    0 ROOT
