@<TRIPOS>MOLECULE
1YQ
   45    47     1     0     0
SMALL
bcc


@<TRIPOS>ATOM
      1 O12         0.0000    0.0000    0.0000 o         1 1YQ     -0.656500
      2 C17         6.7730   -5.6220  -10.1950 cg        1 1YQ      0.162500
      3 C00         6.6350   -4.0200   -0.3380 ca        1 1YQ     -0.175000
      4 C01         7.0220   -5.3390   -0.4970 ca        1 1YQ     -0.027600
      5 C02         6.7100   -6.0190   -1.6620 ca        1 1YQ     -0.094000
      6 C03         6.0110   -5.3820   -2.6700 ca        1 1YQ     -0.155000
      7 C04         5.6220   -4.0610   -2.5180 ca        1 1YQ      0.112100
      8 C05         5.9340   -3.3780   -1.3460 ca        1 1YQ      0.130100
      9 O0A         4.9360   -3.4350   -3.5100 os        1 1YQ     -0.210200
     10 O0B         5.5540   -2.0820   -1.1920 os        1 1YQ     -0.302900
     11 C0C         4.6420   -4.1450   -4.6310 ca        1 1YQ      0.094100
     12 C0D         3.4560   -4.8620   -4.7080 ca        1 1YQ     -0.103000
     13 C0E         3.1520   -5.5880   -5.8460 ca        1 1YQ     -0.085000
     14 C0F         4.0250   -5.6040   -6.9120 ca        1 1YQ     -0.104000
     15 C0G         5.2240   -4.8850   -6.8460 ca        1 1YQ     -0.064800
     16 C0H         5.5260   -4.1490   -5.6970 ca        1 1YQ     -0.081000
     17 C0M         6.1590   -4.9010   -7.9820 cf        1 1YQ     -0.076200
     18 C0O         5.9090   -1.4430    0.0360 c3        1 1YQ      0.165400
     19 C0P         5.4000   -0.0000    0.0270 c3        1 1YQ      0.047000
     20 N0S         3.9350    0.0000    0.0000 n         1 1YQ      0.042000
     21 C0V         3.2460    0.0000    1.1560 c         1 1YQ      0.582500
     22 N0W         1.9010    0.0010    1.1600 ns        1 1YQ     -0.128500
     23 C0X         1.2170    0.0010   -0.0020 c         1 1YQ      0.611700
     24 C0Y         1.9290    0.0010   -1.2270 cc        1 1YQ     -0.299200
     25 C0Z         3.2790    0.0060   -1.2010 cd        1 1YQ     -0.069400
     26 C15         5.8630   -5.6080   -9.0900 ce        1 1YQ      0.023300
     27 N19         7.4850   -5.6190  -11.0810 n1        1 1YQ     -0.358800
     28 H1          6.8810   -3.4900    0.5740 ha        1 1YQ      0.136000
     29 H2          7.0140   -7.0510   -1.7840 ha        1 1YQ      0.118000
     30 H3          5.7680   -5.9160   -3.5810 ha        1 1YQ      0.128000
     31 H7          2.7640   -4.8560   -3.8750 ha        1 1YQ      0.120000
     32 H8          2.2250   -6.1460   -5.9000 ha        1 1YQ      0.110000
     33 H9          3.7830   -6.1740   -7.8020 ha        1 1YQ      0.112000
     34 H10         6.4500   -3.5860   -5.6370 ha        1 1YQ      0.126000
     35 H11         7.0530   -5.5120   -7.9400 ha        1 1YQ      0.143000
     36 H12         5.2980   -1.8380    0.8390 h1        1 1YQ      0.025700
     37 H13         6.9540   -1.6300    0.2510 h1        1 1YQ      0.025700
     38 H14         5.4520    0.3950   -0.9800 h1        1 1YQ      0.045700
     39 H15         6.0140    0.6030    0.6840 h1        1 1YQ      0.045700
     40 H16         1.4000    0.0010    2.0270 hn        1 1YQ      0.206500
     41 H17         1.3880    0.0010   -2.1660 ha        1 1YQ      0.152000
     42 H18         3.8250    0.2460   -2.1060 h4        1 1YQ      0.140000
     43 H19         4.9360   -6.1650   -9.1450 ha        1 1YQ      0.117000
     44 O10         3.8490   -0.0010    2.2110 o         1 1YQ     -0.708500
     45 Cl1         7.9000   -6.1430    0.7670 cl        1 1YQ     -0.019400
@<TRIPOS>BOND
     1    1   23 2   
     2    2   26 1   
     3    2   27 3   
     4    3    4 ar  
     5    3    8 ar  
     6    3   28 1   
     7    4    5 ar  
     8    4   45 1   
     9    5    6 ar  
    10    5   29 1   
    11    6    7 ar  
    12    6   30 1   
    13    7    8 ar  
    14    7    9 1   
    15    8   10 1   
    16    9   11 1   
    17   10   18 1   
    18   11   12 ar  
    19   11   16 ar  
    20   12   13 ar  
    21   12   31 1   
    22   13   14 ar  
    23   13   32 1   
    24   14   15 ar  
    25   14   33 1   
    26   15   16 ar  
    27   15   17 1   
    28   16   34 1   
    29   17   26 2   
    30   17   35 1   
    31   18   19 1   
    32   18   36 1   
    33   18   37 1   
    34   19   20 1   
    35   19   38 1   
    36   19   39 1   
    37   20   21 1   
    38   20   25 1   
    39   21   22 1   
    40   21   44 2   
    41   22   23 1   
    42   22   40 1   
    43   23   24 1   
    44   24   25 2   
    45   24   41 1   
    46   25   42 1   
    47   26   43 1   
@<TRIPOS>SUBSTRUCTURE
     1 1YQ         1 TEMP              0 ****  ****    0 ROOT
