@<TRIPOS>MOLECULE
1YQ
   45    47     1     0     0
SMALL
bcc


@<TRIPOS>ATOM
      1 O12         -0.1430    -0.5110     1.6930 o          1 1YQ      -0.609500
      2 C17          6.5490     2.8740    -8.4260 cg         1 1YQ       0.184500
      3 C00          6.4680     4.0010     1.4840 ca         1 1YQ      -0.126000
      4 C01          7.1270     5.2290     1.4690 ca         1 1YQ       0.025400
      5 C02          7.3240     5.9290     0.2720 ca         1 1YQ      -0.127000
      6 C03          6.8520     5.3960    -0.9210 ca         1 1YQ      -0.136000
      7 C04          6.1810     4.1660    -0.9260 ca         1 1YQ       0.044100
      8 C05          5.9890     3.4590     0.2780 ca         1 1YQ       0.116100
      9 O0A          5.6040     3.6420    -2.0790 os         1 1YQ      -0.254200
     10 O0B          5.2690     2.2910     0.4140 os         1 1YQ      -0.317900
     11 C0C          6.3140     3.8250    -3.2660 ca         1 1YQ       0.091100
     12 C0D          7.7090     3.7180    -3.3420 ca         1 1YQ      -0.160000
     13 C0E          8.3210     3.8080    -4.5900 ca         1 1YQ      -0.105000
     14 C0F          7.5580     3.9910    -5.7420 ca         1 1YQ      -0.120000
     15 C0G          6.1620     4.0950    -5.6620 ca         1 1YQ      -0.059800
     16 C0H          5.5330     4.0270    -4.4100 ca         1 1YQ      -0.124000
     17 C0M          5.3390     4.3070    -6.8420 cf         1 1YQ      -0.052200
     18 C0O          5.3310     1.3780    -0.6870 c3         1 1YQ       0.108400
     19 C0P          5.0570    -0.0210    -0.1180 c3         1 1YQ       0.085000
     20 N0S          3.7010    -0.2560     0.3220 n          1 1YQ      -0.370000
     21 C0V          3.4350    -0.4270     1.7110 c          1 1YQ       0.812500
     22 N0W          2.0980    -0.5210     2.1260 ns         1 1YQ      -0.584500
     23 C0X          1.0100    -0.4310     1.2390 c          1 1YQ       0.715700
     24 C0Y          1.3470    -0.2470    -0.1770 cc         1 1YQ      -0.316200
     25 C0Z          2.6430    -0.1510    -0.5690 cd         1 1YQ       0.049600
     26 C15          5.5190     3.7750    -8.0600 ce         1 1YQ      -0.059700
     27 N19          7.3740     2.1230    -8.7610 n1         1 1YQ      -0.362800
     28 H1           6.3050     3.4440     2.4200 ha         1 1YQ       0.174000
     29 H2           7.8450     6.8980     0.2740 ha         1 1YQ       0.154000
     30 H3           6.9970     5.9360    -1.8700 ha         1 1YQ       0.154000
     31 H7           8.3030     3.5740    -2.4280 ha         1 1YQ       0.151000
     32 H8           9.4160     3.7280    -4.6670 ha         1 1YQ       0.145000
     33 H9           8.0560     4.0620    -6.7210 ha         1 1YQ       0.148000
     34 H10          4.4410     4.1140    -4.3190 ha         1 1YQ       0.153000
     35 H11          4.4700     4.9740    -6.6810 ha         1 1YQ       0.142000
     36 H12          6.3490     1.3870    -1.1560 h1         1 1YQ       0.060200
     37 H13          4.5640     1.6890    -1.4450 h1         1 1YQ       0.060200
     38 H14          5.2930    -0.7650    -0.9320 h1         1 1YQ       0.087700
     39 H15          5.7480    -0.2000     0.7570 h1         1 1YQ       0.087700
     40 H16          1.9360    -0.6400     3.1030 hn         1 1YQ       0.352500
     41 H17          0.5090    -0.1920    -0.8820 ha         1 1YQ       0.179000
     42 H18          2.9290     0.0000    -1.6280 h4         1 1YQ       0.161000
     43 H19          4.8210     4.0180    -8.8840 ha         1 1YQ       0.156000
     44 O10          4.3640    -0.5260     2.5400 o          1 1YQ      -0.635500
     45 Cl1          7.7060     5.8820     2.9260 cl         1 1YQ      -0.079400
@<TRIPOS>BOND
     1     1    23 2   
     2     2    26 1   
     3     2    27 3   
     4     3     4 ar  
     5     3     8 ar  
     6     3    28 1   
     7     4     5 ar  
     8     4    45 1   
     9     5     6 ar  
    10     5    29 1   
    11     6     7 ar  
    12     6    30 1   
    13     7     8 ar  
    14     7     9 1   
    15     8    10 1   
    16     9    11 1   
    17    10    18 1   
    18    11    12 ar  
    19    11    16 ar  
    20    12    13 ar  
    21    12    31 1   
    22    13    14 ar  
    23    13    32 1   
    24    14    15 ar  
    25    14    33 1   
    26    15    16 ar  
    27    15    17 1   
    28    16    34 1   
    29    17    26 2   
    30    17    35 1   
    31    18    19 1   
    32    18    36 1   
    33    18    37 1   
    34    19    20 1   
    35    19    38 1   
    36    19    39 1   
    37    20    21 1   
    38    20    25 1   
    39    21    22 1   
    40    21    44 2   
    41    22    23 1   
    42    22    40 1   
    43    23    24 1   
    44    24    25 2   
    45    24    41 1   
    46    25    42 1   
    47    26    43 1   
@<TRIPOS>SUBSTRUCTURE
     1 1YQ         1 TEMP              0 ****  ****    0 ROOT
