@<TRIPOS>MOLECULE
molecule
   45    47     1     0     0
SMALL
bcc


@<TRIPOS>ATOM
      1 C15          0.0000     0.0000     0.0000 ce         1 1YR      -0.073700
      2 C17         -0.7160     0.0000     1.2400 cg         1 1YR       0.187500
      3 C00          7.3890    -2.9430     0.2530 ca         1 1YR      -0.213000
      4 C01          6.7400    -4.1320     0.1970 ca         1 1YR       0.111400
      5 C02          5.7190    -4.0470    -0.6850 ca         1 1YR      -0.139000
      6 C03          5.4630    -2.8520    -1.3830 ca         1 1YR      -0.106000
      7 C04          5.6800    -1.6090    -0.9530 ca         1 1YR       0.184100
      8 C05          7.1460    -1.7990    -0.4140 ca         1 1YR       0.153100
      9 O0A          5.5240     0.0000    -2.4910 os         1 1YR      -0.317200
     10 O0B          7.9560    -0.7020     0.0520 os         1 1YR      -0.313900
     11 C0C          4.1650     0.0010    -2.4840 ca         1 1YR       0.111100
     12 C0D          3.4640     0.0020    -3.6820 ca         1 1YR      -0.123000
     13 C0E          2.0800     0.0020    -3.6820 ca         1 1YR       0.065100
     14 C0F          1.3870     0.0010    -2.4880 ca         1 1YR      -0.120000
     15 C0G          2.0830     0.0000    -1.2750 ca         1 1YR      -0.051800
     16 C0H          3.4810    -0.0060    -1.2800 ca         1 1YR      -0.134000
     17 C0M          1.3480     0.0000     0.0000 cf         1 1YR      -0.067200
     18 C0O          9.0730    -0.5610    -0.2910 c3         1 1YR       0.217400
     19 C0P          9.7200     0.6180     0.2310 c3         1 1YR       0.129000
     20 N0S         11.1370     0.4120     0.5560 n          1 1YR      -0.500000
     21 C0V         11.7510    -0.2590     1.8040 c          1 1YR       0.756500
     22 N0W         13.4020    -0.3770     1.9490 ns         1 1YR      -0.374500
     23 C0X         14.0420     0.0620     1.0830 c          1 1YR       0.615700
     24 C0Y         13.4920     0.7560    -0.2100 cc         1 1YR      -0.200200
     25 C0Z         12.2280     0.9960    -0.6080 cd         1 1YR      -0.000400
     26 O10         10.9140    -0.5780     2.7610 o          1 1YR      -0.589500
     27 O12         15.5110    -0.0090     1.2040 o          1 1YR      -0.758500
     28 N19         -1.2810     0.0200     2.2260 n1         1 1YR      -0.353800
     29 H1          -0.4890    -0.2500    -0.9340 ha         1 1YR       0.149000
     30 H3           8.1580    -2.9150     1.0160 ha         1 1YR       0.168000
     31 H4           5.3750    -5.0490    -0.9120 ha         1 1YR       0.159000
     32 H5           4.5480    -3.0210    -1.9390 ha         1 1YR       0.146000
     33 H9           4.0970    -0.0630    -4.5590 ha         1 1YR       0.161000
     34 H10          0.3590    -0.3140    -2.3540 ha         1 1YR       0.153000
     35 H11          4.0500    -0.3360    -0.4190 ha         1 1YR       0.161000
     36 H12          1.6130     0.3920     0.9740 ha         1 1YR       0.152000
     37 H14          9.4830    -1.4540     0.1660 h1         1 1YR      -0.027300
     38 H15          9.4290    -0.7040    -1.3040 h1         1 1YR      -0.027300
     39 H16          9.6230     0.8140     1.2920 h1         1 1YR       0.092200
     40 H17          9.9090     1.5070    -0.3580 h1         1 1YR       0.092200
     41 H18         13.6360    -0.3880     2.9220 hn         1 1YR       0.372500
     42 H19         14.2050     0.8070    -1.0240 ha         1 1YR       0.170000
     43 H20         11.9010     1.2970    -1.5960 h4         1 1YR       0.197000
     44 Br1          0.7910     0.3160    -5.2700 br         1 1YR      -0.135100
     45 Cl1          7.5730    -5.5280     1.0590 cl         1 1YR      -0.078400
@<TRIPOS>BOND
     1     1     2 1
     2     1    17 2
     3     2    28 3
     4     3     4 ar
     5     3     8 ar
     6     4     5 ar
     7     5     6 ar
     8     6     7 ar
     9     7     8 ar
    10     7     9 1
    11     8    10 1
    12     9    11 1
    13    10    18 1
    14    11    12 ar
    15    11    16 ar
    16    12    13 ar
    17    13    14 ar
    18    13    44 1
    19    14    15 ar
    20    15    16 ar
    21    15    17 1
    22    18    19 1
    23    19    20 1
    24    20    21 1
    25    20    25 1
    26    21    22 1
    27    21    26 2
    28    22    23 1
    29    23    24 1
    30    23    27 2
    31    24    25 2
    32     4    45 1
    33     1    29 1
    34     3    30 1
    35     5    31 1
    36     6    32 1
    37    12    33 1
    38    14    34 1
    39    16    35 1
    40    17    36 1
    41    18    37 1
    42    18    38 1
    43    19    39 1
    44    19    40 1
    45    22    41 1
    46    24    42 1
    47    25    43 1
@<TRIPOS>SUBSTRUCTURE
     1 1YR         1 TEMP              0 ****  ****    0 ROOT
