@<TRIPOS>MOLECULE
1YR
   45    47     1     0     0
SMALL
bcc


@<TRIPOS>ATOM
      1 C15          1.2340     0.8350     0.4070 ce         1 1YR      -0.032700
      2 C17          1.1390    -0.5240     0.7990 cg         1 1YR       0.170500
      3 C00          5.9290    -0.5270    -6.7990 ca         1 1YR      -0.179000
      4 C01          6.7040     0.4700    -6.2040 ca         1 1YR       0.051400
      5 C02          6.3660     0.9820    -4.9470 ca         1 1YR      -0.144000
      6 C03          5.2500     0.4830    -4.2820 ca         1 1YR      -0.086000
      7 C04          4.4480    -0.5100    -4.8530 ca         1 1YR      -0.101300
      8 C05          4.7940    -1.0040    -6.1280 ca         1 1YR       0.146100
      9 O0A          1.4710    -0.0810    -5.3870 o          1 1YR      -0.545100
     10 O0B          4.0320    -2.0390    -6.6380 os         1 1YR      -0.339900
     11 C0C          2.0720    -0.1210    -4.3050 c          1 1YR       0.582300
     12 C0D          3.2600    -1.0540    -4.1160 c3         1 1YR      -0.077200
     13 C0E          3.5810    -1.3200    -2.6810 c2         1 1YR      -0.036500
     14 C0F          3.0340    -0.6240    -1.6670 cf         1 1YR      -0.123000
     15 C0G          2.0910     0.4550    -1.9120 cf         1 1YR       0.008000
     16 C0H          1.6520     0.7050    -3.1660 ce         1 1YR      -0.224200
     17 C0M          1.6470     1.2730    -0.7900 cf         1 1YR      -0.090000
     18 C0O          3.7230    -1.9640    -8.0370 c3         1 1YR       0.105400
     19 C0P          2.2120    -1.7510    -8.2080 c3         1 1YR       0.075000
     20 N0S          1.3950    -2.9090    -7.9220 n          1 1YR      -0.368000
     21 C0V          1.4010    -3.9910    -8.8450 c          1 1YR       0.802500
     22 N0W          0.6350    -5.1260    -8.5480 ns         1 1YR      -0.584500
     23 C0X         -0.1110    -5.2550    -7.3600 c          1 1YR       0.715700
     24 C0Y         -0.0500    -4.1200    -6.4340 cc         1 1YR      -0.330200
     25 C0Z          0.6900    -3.0200    -6.7340 cd         1 1YR       0.059600
     26 O10          2.0660    -3.9240    -9.9030 o          1 1YR      -0.651500
     27 O12         -0.7590    -6.2980    -7.1730 o          1 1YR      -0.611500
     28 N19          1.0380    -1.6290     1.1520 n1         1 1YR      -0.339800
     29 H1           0.9130     1.5530     1.1870 ha         1 1YR       0.161000
     30 H3           6.2120    -0.9470    -7.7760 ha         1 1YR       0.160000
     31 H4           6.9810     1.7670    -4.4820 ha         1 1YR       0.154000
     32 H5           4.9940     0.8740    -3.2840 ha         1 1YR       0.144000
     33 H9           2.9630    -2.0400    -4.5980 hc         1 1YR       0.127700
     34 H10          3.2780    -0.8400    -0.6120 ha         1 1YR       0.163000
     35 H11          0.9370     1.5120    -3.3910 ha         1 1YR       0.162000
     36 H12          1.6490     2.3620    -0.9900 ha         1 1YR       0.150000
     37 H14          4.0540    -2.9480    -8.4670 h1         1 1YR       0.075700
     38 H15          4.2550    -1.1230    -8.5480 h1         1 1YR       0.075700
     39 H16          1.8800    -0.9060    -7.5370 h1         1 1YR       0.090200
     40 H17          2.0380    -1.4680    -9.2870 h1         1 1YR       0.090200
     41 H18          0.6430    -5.8670    -9.2150 hn         1 1YR       0.351500
     42 H19         -0.6260    -4.2080    -5.5060 ha         1 1YR       0.179000
     43 H20          0.7620    -2.1450    -6.0550 h4         1 1YR       0.181000
     44 Br1          4.7970    -2.7040    -2.3430 br         1 1YR      -0.036700
     45 Cl1          8.0740     1.0590    -7.0140 cl         1 1YR      -0.079400
@<TRIPOS>BOND
     1     1     2 1   
     2     1    17 2   
     3     1    29 1   
     4     2    28 3   
     5     3     4 ar  
     6     3     8 ar  
     7     3    30 1   
     8     4     5 ar  
     9     4    45 1   
    10     5     6 ar  
    11     5    31 1   
    12     6     7 ar  
    13     6    32 1   
    14     7     8 ar  
    15     7    12 1   
    16     8    10 1   
    17     9    11 2   
    18    10    18 1   
    19    11    12 1   
    20    11    16 1   
    21    12    13 1   
    22    12    33 1   
    23    13    14 2   
    24    13    44 1   
    25    14    15 1   
    26    14    34 1   
    27    15    16 2   
    28    15    17 1   
    29    16    35 1   
    30    17    36 1   
    31    18    19 1   
    32    18    37 1   
    33    18    38 1   
    34    19    20 1   
    35    19    39 1   
    36    19    40 1   
    37    20    21 1   
    38    20    25 1   
    39    21    22 1   
    40    21    26 2   
    41    22    23 1   
    42    22    41 1   
    43    23    24 1   
    44    23    27 2   
    45    24    25 2   
    46    24    42 1   
    47    25    43 1   
@<TRIPOS>SUBSTRUCTURE
     1 1YR         1 TEMP              0 ****  ****    0 ROOT
