@<TRIPOS>MOLECULE
1YR
   45    46     1     0     0
SMALL
bcc


@<TRIPOS>ATOM
      1 C15        -0.0180   -0.5260    1.0690 c2        1 1YR     -0.407000
      2 C17         0.2500    0.8340    0.8300 c1        1 1YR     -0.056000
      3 C00         5.5670    2.7700    1.0290 ca        1 1YR     -0.197000
      4 C01         6.6710    2.1350    1.6080 ca        1 1YR     -0.026000
      5 C02         7.3540    1.1120    0.9440 ca        1 1YR     -0.153000
      6 C03         6.9290    0.7080   -0.3200 ca        1 1YR     -0.095000
      7 C04         5.8270    1.3280   -0.9150 ca        1 1YR      0.003000
      8 C05         5.1400    2.3650   -0.2410 ca        1 1YR      0.078000
      9 O0A         5.5140    1.0170   -2.2360 os        1 1YR     -0.144000
     10 O0B         4.0790    2.9090   -0.9330 os        1 1YR     -0.190000
     11 C0C         4.4840    0.1000   -2.4240 ca        1 1YR      0.083000
     12 C0D         4.0840   -0.0560   -3.7630 ca        1 1YR     -0.126000
     13 C0E         3.0780   -0.9740   -4.0580 ca        1 1YR     -0.140000
     14 C0F         2.4750   -1.7210   -3.0390 ca        1 1YR     -0.136000
     15 C0G         2.8820   -1.5480   -1.7180 ca        1 1YR     -0.111000
     16 C0H         3.8910   -0.6420   -1.3970 ca        1 1YR     -0.178000
     17 C0M         0.5930   -1.5840    0.5660 c1        1 1YR      0.283000
     18 C0O         3.2240    3.8080   -0.2310 c3        1 1YR     -0.049000
     19 C0P         3.8050    5.2290   -0.3320 c3        1 1YR     -0.050000
     20 N0S         3.0540    6.2190    0.4050 n         1 1YR     -0.267000
     21 C0V         3.1920    6.2610    1.8200 c2        1 1YR      0.398000
     22 N0W         2.4490    7.2070    2.5360 n         1 1YR     -0.362000
     23 C0X         1.5390    8.0890    1.9210 c2        1 1YR      0.353000
     24 C0Y         1.4100    7.9700    0.4640 c2        1 1YR     -0.298000
     25 C0Z         2.1450    7.0570   -0.2230 c2        1 1YR      0.051000
     26 O10         3.9680    5.4730    2.4060 o         1 1YR     -0.375000
     27 O12         0.9140    8.8940    2.6300 o         1 1YR     -0.329000
     28 N19         0.4680    1.9610    0.6390 n1        1 1YR     -0.043000
     29 H1         -0.8590   -0.7220    1.7800 ha        1 1YR      0.222000
     30 H3          5.0530    3.5820    1.5730 ha        1 1YR      0.187000
     31 H4          8.2230    0.6260    1.4120 ha        1 1YR      0.154000
     32 H5          7.4590   -0.0900   -0.8620 ha        1 1YR      0.157000
     33 H9          4.5710    0.5460   -4.5450 ha        1 1YR      0.164000
     34 H10         1.6800   -2.4450   -3.2740 ha        1 1YR      0.148000
     35 H11         4.2180   -0.5080   -0.3560 ha        1 1YR      0.148000
     36 H12         2.4010   -2.1360   -0.9170 ha        1 1YR      0.150000
     37 H14         2.2520    3.7250   -0.7920 h1        1 1YR      0.122000
     38 H15         3.0730    3.4970    0.8350 h1        1 1YR      0.122000
     39 H16         4.8600    5.2140    0.0700 h1        1 1YR      0.120000
     40 H17         3.8450    5.5320   -1.4160 h1        1 1YR      0.120000
     41 H18         2.5750    7.2300    3.5250 hn        1 1YR      0.268000
     42 H19         0.7000    8.6470   -0.0260 ha        1 1YR      0.181000
     43 H20         2.0660    6.9420   -1.3210 h4        1 1YR      0.167000
     44 BR1         2.5280   -1.2060   -5.8350 br        1 1YR      0.054000
     45 CL1         7.1910    2.6220    3.1500 cl        1 1YR      0.002000
@<TRIPOS>BOND
     1    1    2 1   
     2    1   17 1   
     3    1   29 1   
     4    2   28 1   
     5    3    4 1   
     6    3    8 1   
     7    3   30 1   
     8    4    5 1   
     9    4   45 1   
    10    5    6 1   
    11    5   31 1   
    12    6    7 1   
    13    6   32 1   
    14    7    8 1   
    15    7    9 1   
    16    8   10 1   
    17    9   11 1   
    18   10   18 1   
    19   11   12 1   
    20   11   16 1   
    21   12   13 1   
    22   12   33 1   
    23   13   14 1   
    24   13   44 1   
    25   14   15 1   
    26   14   34 1   
    27   15   16 1   
    28   15   36 1   
    29   16   35 1   
    30   18   19 1   
    31   18   37 1   
    32   18   38 1   
    33   19   20 1   
    34   19   39 1   
    35   19   40 1   
    36   20   21 1   
    37   20   25 1   
    38   21   22 1   
    39   21   26 1   
    40   22   23 1   
    41   22   41 1   
    42   23   24 1   
    43   23   27 1   
    44   24   25 1   
    45   24   42 1   
    46   25   43 1   
@<TRIPOS>SUBSTRUCTURE
     1 1YR         1 TEMP              0 ****  ****    0 ROOT
