@<TRIPOS>MOLECULE
molecule
   70    72     1     0     0
SMALL
bcc


@<TRIPOS>ATOM
      1 F1           0.0000     0.0000     0.0000 f          1 1YS      -0.204800
      2 C2           1.3990     0.0000     0.0000 c3         1 1YS       0.614400
      3 F3           1.8660     0.0000     1.3200 f          1 1YS      -0.204800
      4 F4           1.8670    -1.1420    -0.6590 f          1 1YS      -0.204800
      5 C5           1.9100     1.2500    -0.7200 c3         1 1YS       0.030100
      6 O7           3.3390     1.2490    -0.7200 os         1 1YS      -0.271900
      7 C8           3.9560     1.8870     0.3120 ca         1 1YS       0.131100
      8 C9           5.3400     2.0310     0.3140 ca         1 1YS       0.113600
      9 C10          5.9650     2.6820     1.3700 ca         1 1YS       0.151900
     10 C11          5.2110     3.1860     2.4150 ca         1 1YS      -0.196000
     11 C13          3.8350     3.0410     2.4100 ca         1 1YS      -0.018300
     12 C14          3.2070     2.3990     1.3590 ca         1 1YS      -0.216000
     13 C16          3.0180     3.5910     3.5510 c3         1 1YS      -0.029100
     14 C19          2.6120     5.0330     3.2400 c3         1 1YS      -0.064700
     15 C21          1.6730     5.5410     4.3290 c3         1 1YS       0.154100
     16 C23          1.0390     6.8680     3.9200 c3         1 1YS       0.159500
     17 C25          2.0920     7.9790     3.9440 c3         1 1YS      -0.119100
     18 S28          3.3740     7.5990     2.7130 s4         1 1YS       0.274600
     19 C29          3.8630     5.9110     3.1760 c3         1 1YS      -0.080100
     20 O32          2.7960     7.5840     1.4160 o          1 1YS      -0.497200
     21 N33         -0.0430     7.2000     4.8570 n7         1 1YS      -0.798200
     22 C35         -1.0330     8.0820     4.2250 c3         1 1YS       0.206100
     23 C38         -2.1250     8.4010     5.2130 ca         1 1YS      -0.087300
     24 C39         -3.2390     7.5870     5.3000 ca         1 1YS      -0.099000
     25 C41         -4.2400     7.8800     6.2070 ca         1 1YS      -0.071300
     26 C42         -4.1280     8.9860     7.0280 ca         1 1YS      -0.127000
     27 C44         -3.0140     9.8010     6.9410 ca         1 1YS      -0.128000
     28 C46         -2.0100     9.5050     6.0380 ca         1 1YS      -0.132000
     29 C48         -5.4540     6.9930     6.3010 c3         1 1YS      -0.023700
     30 C49         -6.1740     6.9680     4.9510 c3         1 1YS      -0.080767
     31 C53         -5.0220     5.5730     6.6730 c3         1 1YS      -0.080767
     32 C57         -6.4020     7.5350     7.3730 c3         1 1YS      -0.080767
     33 O61          0.6420     4.5760     4.5510 oh         1 1YS      -0.583800
     34 F63          7.3090     2.8240     1.3780 f          1 1YS      -0.127900
     35 N64          6.1020     1.5190    -0.7450 nv         1 1YS      -0.968200
     36 C67          1.4000     1.2510    -2.1620 c3         1 1YS       0.614400
     37 F68          0.0010     1.2500    -2.1630 f          1 1YS      -0.204800
     38 F69          1.8660     2.3930    -2.8210 f          1 1YS      -0.204800
     39 F70          1.8670     0.1080    -2.8220 f          1 1YS      -0.204800
     40 H1           1.5490     2.1340    -0.2090 h1         1 1YS       0.117700
     41 H2           5.6980     3.6920     3.2390 ha         1 1YS       0.148000
     42 H3           2.1300     2.2880     1.3590 ha         1 1YS       0.144000
     43 H4           3.6070     3.5700     4.4600 hc         1 1YS       0.062700
     44 H5           2.1290     2.9860     3.6830 hc         1 1YS       0.062700
     45 H6           2.1030     5.0680     2.2850 hc         1 1YS       0.080700
     46 H7           2.2360     5.6840     5.2440 h1         1 1YS       0.030700
     47 H8           0.6370     6.7780     2.9180 h1         1 1YS       0.087700
     48 H9           2.5400     8.0320     4.9290 h1         1 1YS       0.085200
     49 H10          1.6250     8.9260     3.7000 h1         1 1YS       0.085200
     50 H11          4.5460     5.5160     2.4340 h1         1 1YS       0.088700
     51 H12          4.3440     5.9280     4.1470 h1         1 1YS       0.088700
     52 H14          0.3410     7.6530     5.6620 hn         1 1YS       0.353800
     53 H16         -1.4610     7.5850     3.3620 h1         1 1YS       0.041200
     54 H17         -0.5510     9.0000     3.9100 h1         1 1YS       0.041200
     55 H18         -3.3270     6.7200     4.6570 ha         1 1YS       0.140000
     56 H19         -4.9130     9.2160     7.7370 ha         1 1YS       0.136000
     57 H20         -2.9240    10.6660     7.5860 ha         1 1YS       0.128000
     58 H21         -1.1370    10.1430     5.9700 ha         1 1YS       0.123000
     59 H22         -6.3130     7.9830     4.5970 hc         1 1YS       0.037256
     60 H23         -7.1400     6.4910     5.0650 hc         1 1YS       0.037256
     61 H24         -5.5800     6.4140     4.2350 hc         1 1YS       0.037256
     62 H25         -5.8950     4.9860     6.9320 hc         1 1YS       0.037256
     63 H26         -4.3480     5.6110     7.5210 hc         1 1YS       0.037256
     64 H27         -4.5170     5.1160     5.8300 hc         1 1YS       0.037256
     65 H28         -6.7080     8.5400     7.1100 hc         1 1YS       0.037256
     66 H29         -5.8930     7.5520     8.3290 hc         1 1YS       0.037256
     67 H30         -7.2750     6.8970     7.4400 hc         1 1YS       0.037256
     68 H31          0.5900     4.3780     5.4710 ho         1 1YS       0.409000
     69 H32          6.4570     0.5850    -0.7000 hn         1 1YS       0.435800
     70 H33          6.3140     2.0980    -1.5330 hn         1 1YS       0.435800
@<TRIPOS>BOND
     1    38    36 1   
     2    37    36 1   
     3    36    39 1   
     4    36     5 1   
     5    33    15 1   
     6    21    22 1   
     7    21    16 1   
     8    15    16 1   
     9    15    14 1   
    10     5     6 1   
    11     5     2 1   
    12    13    14 1   
    13    13    11 1   
    14    22    23 1   
    15     4     2 1   
    16    12    11 ar  
    17    12     7 ar  
    18    16    17 1   
    19     6     7 1   
    20    14    19 1   
    21    17    18 1   
    22     2     3 1   
    23     2     1 1   
    24    19    18 1   
    25    11    10 ar  
    26     7     8 ar  
    27    30    29 1   
    28    24    23 ar  
    29    24    25 ar  
    30    23    28 ar  
    31    18    20 2   
    32    32    29 1   
    33    10     9 ar  
    34     8     9 ar  
    35     8    35 1   
    36    29    25 1   
    37    29    31 1   
    38    25    26 ar  
    39    28    27 ar  
    40     9    34 1   
    41    26    27 ar  
    42     5    40 1   
    43    10    41 1   
    44    12    42 1   
    45    13    43 1   
    46    13    44 1   
    47    14    45 1   
    48    15    46 1   
    49    16    47 1   
    50    17    48 1   
    51    17    49 1   
    52    19    50 1   
    53    19    51 1   
    54    21    52 1   
    55    22    53 1   
    56    22    54 1   
    57    24    55 1   
    58    26    56 1   
    59    27    57 1   
    60    28    58 1   
    61    30    59 1   
    62    30    60 1   
    63    30    61 1   
    64    31    62 1   
    65    31    63 1   
    66    31    64 1   
    67    32    65 1   
    68    32    66 1   
    69    32    67 1   
    70    33    68 1   
    71    35    69 1   
    72    35    70 1   
@<TRIPOS>SUBSTRUCTURE
     1 1YS         1 TEMP              0 ****  ****    0 ROOT
