@<TRIPOS>MOLECULE
1YS
   71    73     1     0     0
SMALL
bcc


@<TRIPOS>ATOM
      1 F1           0.4440     0.0860     2.3380 f          1 1YS      -0.218467
      2 C2           1.4890     0.3290     1.4860 c3         1 1YS       0.632400
      3 F3           2.1730     1.3660     2.0600 f          1 1YS      -0.218467
      4 F4           2.3060    -0.7610     1.5840 f          1 1YS      -0.218467
      5 C5           0.9890     0.6500     0.0260 c3         1 1YS       0.046100
      6 O7           1.4060     1.9780    -0.2560 os         1 1YS      -0.291900
      7 C8           0.3840     2.8130    -0.7140 ca         1 1YS       0.002100
      8 C9          -0.5240     3.3860     0.2140 ca         1 1YS       0.150600
      9 C10         -1.4640     4.3250    -0.3250 ca         1 1YS       0.065900
     10 C11         -1.4670     4.6430    -1.6870 ca         1 1YS      -0.106000
     11 C13         -0.5460     4.0580    -2.5630 ca         1 1YS      -0.124300
     12 C14          0.3810     3.1400    -2.0710 ca         1 1YS      -0.084000
     13 C16         -0.5390     4.4390    -4.0020 c3         1 1YS      -0.022100
     14 C19         -1.5020     3.5920    -4.8310 c3         1 1YS      -0.064700
     15 C21         -1.5980     4.1290    -6.2700 c3         1 1YS       0.130100
     16 C23         -2.6460     3.2840    -7.0560 c3         1 1YS       0.132500
     17 C25         -2.1030     1.8830    -7.2500 c3         1 1YS      -0.126100
     18 S28         -2.0770     1.0150    -5.6960 s4         1 1YS       0.333600
     19 C29         -1.0540     2.1450    -4.8450 c3         1 1YS      -0.119100
     20 O32         -3.4490     1.2100    -5.1820 o          1 1YS      -0.487200
     21 N33         -3.0430     3.9410    -8.3480 ny         1 1YS      -0.760000
     22 C35         -4.3570     3.4410    -8.8820 c3         1 1YS       0.180100
     23 C38         -5.5180     4.0050    -8.1390 ca         1 1YS      -0.184300
     24 C39         -6.0740     5.2210    -8.5490 ca         1 1YS      -0.104000
     25 C41         -7.1950     5.7540    -7.8980 ca         1 1YS      -0.049300
     26 C42         -7.7450     5.0400    -6.8250 ca         1 1YS      -0.083000
     27 C44         -7.1910     3.8270    -6.4150 ca         1 1YS      -0.117000
     28 C46         -6.0770     3.3020    -7.0650 ca         1 1YS      -0.103000
     29 C48         -7.7690     7.0620    -8.3760 c3         1 1YS      -0.016700
     30 C49         -8.2080     6.9190    -9.8320 c3         1 1YS      -0.089433
     31 C53         -8.9760     7.4990    -7.5550 c3         1 1YS      -0.089433
     32 C57         -6.7030     8.1510    -8.2740 c3         1 1YS      -0.089433
     33 O61         -2.0730     5.4650    -6.3200 oh         1 1YS      -0.626800
     34 F63         -2.3590     4.9200     0.5010 f          1 1YS      -0.128900
     35 N64         -0.5580     2.9860     1.5370 nv         1 1YS      -0.821200
     36 C67          1.6340    -0.2920    -1.0550 c3         1 1YS       0.632400
     37 F68          1.2820    -1.6050    -0.9000 f          1 1YS      -0.218467
     38 F69          1.2210     0.0300    -2.3260 f          1 1YS      -0.218467
     39 F70          2.9970    -0.2680    -1.1080 f          1 1YS      -0.218467
     40 H1          -0.1250     0.5140    -0.0100 h1         1 1YS       0.128700
     41 H2          -2.2050     5.3720    -2.0580 ha         1 1YS       0.154000
     42 H3           1.1250     2.6680    -2.7320 ha         1 1YS       0.156000
     43 H4           0.4990     4.3350    -4.4180 hc         1 1YS       0.054700
     44 H5          -0.8290     5.5220    -4.0780 hc         1 1YS       0.054700
     45 H6          -2.5260     3.6560    -4.3600 hc         1 1YS       0.098700
     46 H7          -0.5930     4.0700    -6.7740 h1         1 1YS       0.055700
     47 H8          -3.5990     3.2400    -6.4290 hx         1 1YS       0.152700
     48 H9          -1.0700     1.9020    -7.6760 h1         1 1YS       0.102200
     49 H10         -2.7440     1.2840    -7.9450 h1         1 1YS       0.102200
     50 H11         -0.0200     2.0770    -5.2730 h1         1 1YS       0.112200
     51 H12         -0.9720     1.8000    -3.7760 h1         1 1YS       0.112200
     52 H14         -3.1240     4.9550    -8.1710 hn         1 1YS       0.454800
     53 H16         -4.3540     2.3160    -8.8200 hx         1 1YS       0.100700
     54 H17         -4.4010     3.7460    -9.9680 hx         1 1YS       0.100700
     55 H18         -5.6360     5.7610    -9.4040 ha         1 1YS       0.134000
     56 H19         -8.6290     5.4240    -6.2900 ha         1 1YS       0.159000
     57 H20         -7.6390     3.2770    -5.5710 ha         1 1YS       0.158000
     58 H21         -5.6510     2.3400    -6.7340 ha         1 1YS       0.153000
     59 H22         -8.9810     6.1200    -9.9270 hc         1 1YS       0.043256
     60 H23         -8.6450     7.8830   -10.1900 hc         1 1YS       0.043256
     61 H24         -7.3410     6.6600   -10.4840 hc         1 1YS       0.043256
     62 H25         -8.6960     7.6380    -6.4830 hc         1 1YS       0.043256
     63 H26         -9.7970     6.7460    -7.6280 hc         1 1YS       0.043256
     64 H27         -9.3600     8.4730    -7.9450 hc         1 1YS       0.043256
     65 H28         -6.3630     8.2640    -7.2170 hc         1 1YS       0.043256
     66 H29         -5.8220     7.9050    -8.9120 hc         1 1YS       0.043256
     67 H30         -7.1260     9.1260    -8.6180 hc         1 1YS       0.043256
     68 H31         -1.4560     6.0240    -5.8300 ho         1 1YS       0.448000
     69 H32          0.3080     2.6740     1.9220 hn         1 1YS       0.428300
     70 H33         -1.1170     3.5420     2.1460 hn         1 1YS       0.428300
     71 H332        -2.3100     3.7830    -9.0430 hn         1 1YS       0.454800
@<TRIPOS>BOND
     1     1     2 1   
     2     2     3 1   
     3     2     4 1   
     4     2     5 1   
     5     5     6 1   
     6     5    36 1   
     7     5    40 1   
     8     6     7 1   
     9     7     8 ar  
    10     7    12 ar  
    11     8     9 ar  
    12     8    35 1   
    13     9    10 ar  
    14     9    34 1   
    15    10    11 ar  
    16    10    41 1   
    17    11    12 ar  
    18    11    13 1   
    19    12    42 1   
    20    13    14 1   
    21    13    43 1   
    22    13    44 1   
    23    14    15 1   
    24    14    19 1   
    25    14    45 1   
    26    15    16 1   
    27    15    33 1   
    28    15    46 1   
    29    16    17 1   
    30    16    21 1   
    31    16    47 1   
    32    17    18 1   
    33    17    48 1   
    34    17    49 1   
    35    18    19 1   
    36    18    20 2   
    37    19    50 1   
    38    19    51 1   
    39    21    22 1   
    40    21    52 1   
    41    21    71 1   
    42    22    23 1   
    43    22    53 1   
    44    22    54 1   
    45    23    24 ar  
    46    23    28 ar  
    47    24    25 ar  
    48    24    55 1   
    49    25    26 ar  
    50    25    29 1   
    51    26    27 ar  
    52    26    56 1   
    53    27    28 ar  
    54    27    57 1   
    55    28    58 1   
    56    29    30 1   
    57    29    31 1   
    58    29    32 1   
    59    30    59 1   
    60    30    60 1   
    61    30    61 1   
    62    31    62 1   
    63    31    63 1   
    64    31    64 1   
    65    32    65 1   
    66    32    66 1   
    67    32    67 1   
    68    33    68 1   
    69    35    69 1   
    70    35    70 1   
    71    36    37 1   
    72    36    38 1   
    73    36    39 1   
@<TRIPOS>SUBSTRUCTURE
     1 1YS         1 TEMP              0 ****  ****    0 ROOT
