@<TRIPOS>MOLECULE
1YS
   70    72     1     0     0
SMALL
bcc


@<TRIPOS>ATOM
      1 F1           0.0000     0.0000     0.0000 f          1 1YS      -0.192133
      2 C2           1.3990     0.0000     0.0000 c3         1 1YS       0.576900
      3 F3           1.8660     0.0000     1.3200 f          1 1YS      -0.192133
      4 F4           1.8670    -1.1420    -0.6590 f          1 1YS      -0.192133
      5 C5           1.9100     1.2500    -0.7200 c3         1 1YS       0.031100
      6 O7           3.3390     1.2490    -0.7200 os         1 1YS      -0.243900
      7 C8           3.9560     1.8870     0.3120 ca         1 1YS       0.141100
      8 C9           5.3400     2.0310     0.3140 ca         1 1YS      -0.015400
      9 C10          5.9650     2.6820     1.3700 ca         1 1YS       0.134900
     10 C11          5.2110     3.1860     2.4150 ca         1 1YS      -0.168000
     11 C13          3.8350     3.0410     2.4100 ca         1 1YS      -0.013300
     12 C14          3.2070     2.3990     1.3590 ca         1 1YS      -0.206000
     13 C16          3.0180     3.5910     3.5510 c3         1 1YS       0.023900
     14 C19          2.6120     5.0330     3.2400 c3         1 1YS      -0.059700
     15 C21          1.6730     5.5410     4.3290 c3         1 1YS       0.193100
     16 C23          1.0390     6.8680     3.9200 c3         1 1YS       0.095500
     17 C25          2.0920     7.9790     3.9440 c3         1 1YS       0.066900
     18 S28          3.3740     7.5990     2.7130 s4         1 1YS      -0.055400
     19 C29          3.8630     5.9110     3.1760 c3         1 1YS       0.095900
     20 O32          2.7960     7.5840     1.4160 o          1 1YS      -0.444200
     21 N33         -0.0430     7.2000     4.8570 n7         1 1YS      -0.566200
     22 C35         -1.0330     8.0820     4.2250 c3         1 1YS       0.202100
     23 C38         -2.1250     8.4010     5.2130 ca         1 1YS      -0.097300
     24 C39         -3.2390     7.5870     5.3000 ca         1 1YS      -0.075000
     25 C41         -4.2400     7.8800     6.2070 ca         1 1YS      -0.076300
     26 C42         -4.1280     8.9860     7.0280 ca         1 1YS      -0.111000
     27 C44         -3.0140     9.8010     6.9410 ca         1 1YS      -0.098000
     28 C46         -2.0100     9.5050     6.0380 ca         1 1YS      -0.106000
     29 C48         -5.4540     6.9930     6.3010 c3         1 1YS      -0.013700
     30 C49         -6.1740     6.9680     4.9510 c3         1 1YS       0.004900
     31 C53         -5.0220     5.5730     6.6730 c3         1 1YS       0.004900
     32 C57         -6.4020     7.5350     7.3730 c3         1 1YS       0.004900
     33 O61          0.6420     4.5760     4.5510 oh         1 1YS      -0.565800
     34 F63          7.3090     2.8240     1.3780 f          1 1YS      -0.119900
     35 N64          6.1020     1.5190    -0.7450 nv         1 1YS      -0.534200
     36 C67          1.4000     1.2510    -2.1620 c3         1 1YS       0.576900
     37 F68          0.0010     1.2500    -2.1630 f          1 1YS      -0.192133
     38 F69          1.8660     2.3930    -2.8210 f          1 1YS      -0.192133
     39 F70          1.8670     0.1080    -2.8220 f          1 1YS      -0.192133
     40 H1           1.5490     2.1340    -0.2090 h1         1 1YS       0.094700
     41 H2           5.6980     3.6920     3.2390 ha         1 1YS       0.126000
     42 H3           2.1300     2.2880     1.3590 ha         1 1YS       0.130000
     43 H4           3.6070     3.5700     4.4600 hc         1 1YS       0.033700
     44 H5           2.1290     2.9860     3.6830 hc         1 1YS       0.033700
     45 H6           2.1030     5.0680     2.2850 hc         1 1YS       0.061700
     46 H7           2.2360     5.6840     5.2440 h1         1 1YS       0.001700
     47 H8           0.6370     6.7780     2.9180 h1         1 1YS       0.068700
     48 H9           2.5400     8.0320     4.9290 h1         1 1YS       0.067200
     49 H10          1.6250     8.9260     3.7000 h1         1 1YS       0.067200
     50 H11          4.5460     5.5160     2.4340 h1         1 1YS       0.071200
     51 H12          4.3440     5.9280     4.1470 h1         1 1YS       0.071200
     52 H14          0.3410     7.6530     5.6620 hn         1 1YS       0.253800
     53 H16         -1.4610     7.5850     3.3620 h1         1 1YS       0.014700
     54 H17         -0.5510     9.0000     3.9100 h1         1 1YS       0.014700
     55 H18         -3.3270     6.7200     4.6570 ha         1 1YS       0.118000
     56 H19         -4.9130     9.2160     7.7370 ha         1 1YS       0.119000
     57 H20         -2.9240    10.6660     7.5860 ha         1 1YS       0.101000
     58 H21         -1.1370    10.1430     5.9700 ha         1 1YS       0.100000
     59 H22         -6.3130     7.9830     4.5970 hc         1 1YS       0.007589
     60 H23         -7.1400     6.4910     5.0650 hc         1 1YS       0.007589
     61 H24         -5.5800     6.4140     4.2350 hc         1 1YS       0.007589
     62 H25         -5.8950     4.9860     6.9320 hc         1 1YS       0.007589
     63 H26         -4.3480     5.6110     7.5210 hc         1 1YS       0.007589
     64 H27         -4.5170     5.1160     5.8300 hc         1 1YS       0.007589
     65 H28         -6.7080     8.5400     7.1100 hc         1 1YS       0.007589
     66 H29         -5.8930     7.5520     8.3290 hc         1 1YS       0.007589
     67 H30         -7.2750     6.8970     7.4400 hc         1 1YS       0.007589
     68 H31          0.5900     4.3780     5.4710 ho         1 1YS       0.395000
     69 H32          6.4570     0.5850    -0.7000 hn         1 1YS       0.279800
     70 H33          6.3140     2.0980    -1.5330 hn         1 1YS       0.279800
@<TRIPOS>BOND
     1     1     2 1   
     2     2     3 1   
     3     2     4 1   
     4     2     5 1   
     5     5     6 1   
     6     5    36 1   
     7     5    40 1   
     8     6     7 1   
     9     7     8 ar  
    10     7    12 ar  
    11     8     9 ar  
    12     8    35 1   
    13     9    10 ar  
    14     9    34 1   
    15    10    11 ar  
    16    10    41 1   
    17    11    12 ar  
    18    11    13 1   
    19    12    42 1   
    20    13    14 1   
    21    13    43 1   
    22    13    44 1   
    23    14    15 1   
    24    14    19 1   
    25    14    45 1   
    26    15    16 1   
    27    15    33 1   
    28    15    46 1   
    29    16    17 1   
    30    16    21 1   
    31    16    47 1   
    32    17    18 1   
    33    17    48 1   
    34    17    49 1   
    35    18    19 1   
    36    18    20 2   
    37    19    50 1   
    38    19    51 1   
    39    21    22 1   
    40    21    52 1   
    41    22    23 1   
    42    22    53 1   
    43    22    54 1   
    44    23    24 ar  
    45    23    28 ar  
    46    24    25 ar  
    47    24    55 1   
    48    25    26 ar  
    49    25    29 1   
    50    26    27 ar  
    51    26    56 1   
    52    27    28 ar  
    53    27    57 1   
    54    28    58 1   
    55    29    30 1   
    56    29    31 1   
    57    29    32 1   
    58    30    59 1   
    59    30    60 1   
    60    30    61 1   
    61    31    62 1   
    62    31    63 1   
    63    31    64 1   
    64    32    65 1   
    65    32    66 1   
    66    32    67 1   
    67    33    68 1   
    68    35    69 1   
    69    35    70 1   
    70    36    37 1   
    71    36    38 1   
    72    36    39 1   
@<TRIPOS>SUBSTRUCTURE
     1 1YS         1 TEMP              0 ****  ****    0 ROOT
