@<TRIPOS>MOLECULE
molecule
   74    76     1     0     0
SMALL
bcc


@<TRIPOS>ATOM
      1 F1           0.0000     0.0000     0.0000 f          1 1YT      -0.214633
      2 C2           1.3990     0.0000     0.0000 c3         1 1YT       0.595900
      3 F3           1.8650    -1.1420    -0.6590 f          1 1YT      -0.214633
      4 F4           1.8660     1.1420    -0.6590 f          1 1YT      -0.214633
      5 C5           1.9090     0.0000     1.4430 c3         1 1YT       0.103100
      6 O7           1.4320    -1.1670     2.1160 os         1 1YT      -0.299900
      7 C8           2.1680    -2.3020     1.9800 ca         1 1YT       0.065100
      8 C9           1.7080    -3.5010     2.5180 ca         1 1YT       0.168600
      9 C10          2.4640    -4.6570     2.3750 ca         1 1YT       0.072900
     10 C11          3.6720    -4.6140     1.7020 ca         1 1YT      -0.148000
     11 C13          4.1270    -3.4220     1.1690 ca         1 1YT      -0.080300
     12 C14          3.3770    -2.2690     1.3020 ca         1 1YT      -0.168000
     13 C16          5.4440    -3.3820     0.4370 c3         1 1YT      -0.021100
     14 C19          5.2100    -3.6610    -1.0490 c3         1 1YT      -0.069700
     15 C21          6.5200    -3.4850    -1.8100 c3         1 1YT       0.136100
     16 C23          6.2760    -3.4910    -3.3160 c3         1 1YT       0.166500
     17 C25          5.8940    -4.9010    -3.7770 c3         1 1YT      -0.066100
     18 S28          4.3320    -5.3760    -2.9810 s4         1 1YT       0.259600
     19 C29          4.6940    -5.0910    -1.2220 c3         1 1YT      -0.075100
     20 O32          3.2990    -4.4950    -3.4000 o          1 1YT      -0.496200
     21 N33          7.4980    -3.0650    -4.0110 n7         1 1YT      -0.813200
     22 C35          7.1830    -2.4940    -5.3270 c3         1 1YT       0.205100
     23 C38          8.4580    -2.0690    -6.0090 ca         1 1YT      -0.084300
     24 C39          8.9480    -0.7910    -5.8220 ca         1 1YT      -0.120000
     25 C41         10.1180    -0.4010    -6.4470 ca         1 1YT      -0.071300
     26 C42         10.7980    -1.2900    -7.2590 ca         1 1YT      -0.129000
     27 C44         10.3080    -2.5690    -7.4440 ca         1 1YT      -0.130000
     28 C46          9.1410    -2.9600    -6.8160 ca         1 1YT      -0.111000
     29 C48         10.6520     0.9930    -6.2460 c3         1 1YT      -0.023700
     30 C49          9.6180     2.0110    -6.7300 c3         1 1YT      -0.080767
     31 C53         10.9340     1.2220    -4.7590 c3         1 1YT      -0.080767
     32 C57         11.9470     1.1650    -7.0420 c3         1 1YT      -0.080767
     33 O61          7.1180    -2.2420    -1.4370 oh         1 1YT      -0.605800
     34 F63          2.0210    -5.8230     2.8960 f          1 1YT      -0.143900
     35 N64          0.4840    -3.5400     3.1990 nv         1 1YT      -0.910200
     36 C67          1.3990     1.2490     2.1650 c3         1 1YT       0.137400
     37 O70         -0.0250     1.3100     2.0630 os         1 1YT      -0.410600
     38 C71         -0.6060     2.4460     2.7080 c3         1 1YT       0.128700
     39 H1           2.9920    -0.0000     1.4430 h1         1 1YT       0.086700
     40 H2           4.2620    -5.5160     1.5930 ha         1 1YT       0.144000
     41 H3           3.7370    -1.3380     0.8830 ha         1 1YT       0.141000
     42 H4           5.8930    -2.4020     0.5540 hc         1 1YT       0.053200
     43 H5           6.1080    -4.1340     0.8450 hc         1 1YT       0.053200
     44 H6           4.4760    -2.9670    -1.4380 hc         1 1YT       0.087700
     45 H7           7.1900    -4.2980    -1.5570 h1         1 1YT       0.043700
     46 H8           5.4680    -2.8080    -3.5490 h1         1 1YT       0.056700
     47 H9           5.7680    -4.9090    -4.8530 h1         1 1YT       0.089700
     48 H10          6.6720    -5.5990    -3.4920 h1         1 1YT       0.089700
     49 H11          3.7890    -5.2220    -0.6410 h1         1 1YT       0.088200
     50 H12          5.4500    -5.7920    -0.8910 h1         1 1YT       0.088200
     51 H14          7.9760    -2.3820    -3.4570 hn         1 1YT       0.367800
     52 H16          6.5360    -1.6340    -5.2030 h1         1 1YT       0.041200
     53 H17          6.6810    -3.2390    -5.9330 h1         1 1YT       0.041200
     54 H18          8.4150    -0.0940    -5.1870 ha         1 1YT       0.131000
     55 H19         11.7140    -0.9840    -7.7500 ha         1 1YT       0.135000
     56 H20         10.8420    -3.2670    -8.0780 ha         1 1YT       0.128000
     57 H21          8.7570    -3.9630    -6.9610 ha         1 1YT       0.132000
     58 H22          9.2700     1.7310    -7.7170 hc         1 1YT       0.036700
     59 H23         10.0710     2.9940    -6.7720 hc         1 1YT       0.036700
     60 H24          8.7800     2.0290    -6.0440 hc         1 1YT       0.036700
     61 H25         11.4940     2.1410    -4.6340 hc         1 1YT       0.036700
     62 H26         11.5100     0.3920    -4.3690 hc         1 1YT       0.036700
     63 H27          9.9960     1.2940    -4.2210 hc         1 1YT       0.036700
     64 H28         11.7480     1.0050    -8.0940 hc         1 1YT       0.036700
     65 H29         12.3310     2.1680    -6.8960 hc         1 1YT       0.036700
     66 H30         12.6800     0.4450    -6.6990 hc         1 1YT       0.036700
     67 H31          7.9450    -2.4050    -1.0150 ho         1 1YT       0.408000
     68 H32         -0.0360    -2.6980     3.3420 hn         1 1YT       0.442800
     69 H33          0.1480    -4.4050     3.5750 hn         1 1YT       0.442800
     70 H34          1.6850     1.2050     3.2080 h1         1 1YT       0.048700
     71 H35          1.8320     2.1320     1.7090 h1         1 1YT       0.048700
     72 H36         -0.3410     2.4390     3.7580 h1         1 1YT       0.034033
     73 H37         -1.6840     2.4060     2.6070 h1         1 1YT       0.034033
     74 H38         -0.2330     3.3530     2.2480 h1         1 1YT       0.034033
@<TRIPOS>BOND
     1     1     2 1
     2     3     2 1
     3     2     4 1
     4     2     5 1
     5    33    15 1
     6    21    22 1
     7    21    16 1
     8    15    16 1
     9    15    14 1
    10     5     6 1
    11     5    36 1
    12    13    14 1
    13    13    11 1
    14    22    23 1
    15    12    11 ar
    16    12     7 ar
    17    16    17 1
    18    14    19 1
    19     6     7 1
    20    17    18 1
    21    19    18 1
    22    36    37 1
    23    11    10 ar
    24     7     8 ar
    25    30    29 1
    26    24    23 ar
    27    24    25 ar
    28    23    28 ar
    29    18    20 2
    30    32    29 1
    31    37    38 1
    32    10     9 ar
    33    29    25 1
    34    29    31 1
    35     8     9 ar
    36     8    35 1
    37    25    26 ar
    38    28    27 ar
    39     9    34 1
    40    26    27 ar
    41     5    39 1
    42    10    40 1
    43    12    41 1
    44    13    42 1
    45    13    43 1
    46    14    44 1
    47    15    45 1
    48    16    46 1
    49    17    47 1
    50    17    48 1
    51    19    49 1
    52    19    50 1
    53    21    51 1
    54    22    52 1
    55    22    53 1
    56    24    54 1
    57    26    55 1
    58    27    56 1
    59    28    57 1
    60    30    58 1
    61    30    59 1
    62    30    60 1
    63    31    61 1
    64    31    62 1
    65    31    63 1
    66    32    64 1
    67    32    65 1
    68    32    66 1
    69    33    67 1
    70    35    68 1
    71    35    69 1
    72    36    70 1
    73    36    71 1
    74    38    72 1
    75    38    73 1
    76    38    74 1
@<TRIPOS>SUBSTRUCTURE
     1 1YT         1 TEMP              0 ****  ****    0 ROOT
