@<TRIPOS>MOLECULE
1YT
   75    77     1     0     0
SMALL
bcc


@<TRIPOS>ATOM
      1 F1           0.2760    -0.5580     0.3180 f          1 1YT      -0.231967
      2 C2           1.5900    -0.1900     0.1720 c3         1 1YT       0.615900
      3 F3           2.1550    -1.2180    -0.5390 f          1 1YT      -0.231967
      4 F4           1.5730     0.8750    -0.6850 f          1 1YT      -0.231967
      5 C5           2.3130     0.0750     1.5440 c3         1 1YT       0.107100
      6 O7           1.6620     1.2020     2.1340 os         1 1YT      -0.320900
      7 C8           1.0910     0.9550     3.3810 ca         1 1YT       0.025100
      8 C9           1.5950     1.6900     4.4900 ca         1 1YT       0.165600
      9 C10          0.8880     1.5280     5.7270 ca         1 1YT       0.060900
     10 C11         -0.2100     0.6680     5.8270 ca         1 1YT      -0.117000
     11 C13         -0.6570    -0.0520     4.7160 ca         1 1YT      -0.128300
     12 C14         -0.0070     0.1020     3.4910 ca         1 1YT      -0.111000
     13 C16         -1.8540    -0.9300     4.8250 c3         1 1YT      -0.022100
     14 C19         -1.6100    -2.1440     5.7200 c3         1 1YT      -0.065700
     15 C21         -2.8770    -3.0140     5.7990 c3         1 1YT       0.129100
     16 C23         -2.6180    -4.1980     6.7780 c3         1 1YT       0.131500
     17 C25         -1.5980    -5.1330     6.1600 c3         1 1YT      -0.125100
     18 S28          0.0070    -4.3590     6.1450 s4         1 1YT       0.328600
     19 C29         -0.4440    -2.9600     5.2050 c3         1 1YT      -0.116100
     20 O32          0.1680    -3.9050     7.5430 o          1 1YT      -0.487200
     21 N33         -3.8930    -4.8960     7.1650 ny         1 1YT      -0.760000
     22 C35         -3.7640    -5.6930     8.4320 c3         1 1YT       0.180100
     23 C38         -3.7660    -4.8280     9.6450 ca         1 1YT      -0.184300
     24 C39         -4.9810    -4.4920    10.2500 ca         1 1YT      -0.104000
     25 C41         -5.0120    -3.7160    11.4170 ca         1 1YT      -0.050300
     26 C42         -3.7960    -3.2840    11.9630 ca         1 1YT      -0.084000
     27 C44         -2.5830    -3.6180    11.3600 ca         1 1YT      -0.117000
     28 C46         -2.5580    -4.3880    10.2000 ca         1 1YT      -0.103000
     29 C48         -6.3420    -3.3840    12.0420 c3         1 1YT      -0.016700
     30 C49         -7.0570    -4.6760    12.4270 c3         1 1YT      -0.089433
     31 C53         -6.1940    -2.5300    13.2960 c3         1 1YT      -0.089433
     32 C57         -7.1950    -2.6130    11.0380 c3         1 1YT      -0.089433
     33 O61         -3.9890    -2.3110     6.3320 oh         1 1YT      -0.628800
     34 F63          1.2910     2.2210     6.8220 f          1 1YT      -0.132900
     35 N64          2.7330     2.4650     4.4020 nv         1 1YT      -0.819200
     36 C67          3.7860     0.4270     1.3190 c3         1 1YT       0.116400
     37 O70          4.5250    -0.4670     2.1460 os         1 1YT      -0.429600
     38 C71          5.9280    -0.2720     2.0400 c3         1 1YT       0.115700
     39 H1           2.2140    -0.8530     2.1680 h1         1 1YT       0.104700
     40 H2          -0.7220     0.5730     6.7980 ha         1 1YT       0.150000
     41 H3          -0.3590    -0.4290     2.5910 ha         1 1YT       0.154000
     42 H4          -2.1700    -1.2800     3.8060 hc         1 1YT       0.054200
     43 H5          -2.6930    -0.3160     5.2530 hc         1 1YT       0.054200
     44 H6          -1.3670    -1.7750     6.7590 hc         1 1YT       0.096700
     45 H7          -3.1420    -3.4060     4.7760 h1         1 1YT       0.055700
     46 H8          -2.2000    -3.7640     7.7480 hx         1 1YT       0.152700
     47 H9          -1.8810    -5.4110     5.1160 h1         1 1YT       0.101200
     48 H10         -1.4960    -6.0800     6.7470 h1         1 1YT       0.101200
     49 H11          0.4500    -2.2770     5.1490 h1         1 1YT       0.113700
     50 H12         -0.6530    -3.2900     4.1540 h1         1 1YT       0.113700
     51 H14         -4.1810    -5.5120     6.4020 hn         1 1YT       0.454800
     52 H16         -4.6410    -6.4040     8.4570 hx         1 1YT       0.100700
     53 H17         -2.8110    -6.2920     8.3740 hx         1 1YT       0.100700
     54 H18         -5.9270    -4.8530     9.8140 ha         1 1YT       0.134000
     55 H19         -3.7780    -2.6750    12.8820 ha         1 1YT       0.159000
     56 H20         -1.6360    -3.2710    11.8040 ha         1 1YT       0.158000
     57 H21         -1.5920    -4.6490     9.7350 ha         1 1YT       0.154000
     58 H22         -8.0390    -4.4370    12.9010 hc         1 1YT       0.043144
     59 H23         -6.4420    -5.2580    13.1550 hc         1 1YT       0.043144
     60 H24         -7.2440    -5.3100    11.5280 hc         1 1YT       0.043144
     61 H25         -5.6020    -3.0690    14.0740 hc         1 1YT       0.043144
     62 H26         -5.6940    -1.5600    13.0580 hc         1 1YT       0.043144
     63 H27         -7.2040    -2.3070    13.7170 hc         1 1YT       0.043144
     64 H28         -8.1790    -2.3540    11.5000 hc         1 1YT       0.043144
     65 H29         -7.3850    -3.2260    10.1260 hc         1 1YT       0.043144
     66 H30         -6.6830    -1.6680    10.7380 hc         1 1YT       0.043144
     67 H31         -4.1280    -1.5170     5.7990 ho         1 1YT       0.450000
     68 H32          3.0180     2.7240     3.4850 hn         1 1YT       0.427800
     69 H33          2.8600     3.1480     5.1140 hn         1 1YT       0.427800
     70 H34          4.0720     0.2800     0.2430 h1         1 1YT       0.060700
     71 H35          3.9860     1.4900     1.6220 h1         1 1YT       0.060700
     72 H36          6.2060     0.7610     2.3640 h1         1 1YT       0.043367
     73 H37          6.3630    -1.0340     2.7340 h1         1 1YT       0.043367
     74 H38          6.2710    -0.4520     0.9910 h1         1 1YT       0.043367
     75 H332        -4.6150    -4.1710     7.3030 hn         1 1YT       0.454800
@<TRIPOS>BOND
     1     1     2 1   
     2     2     3 1   
     3     2     4 1   
     4     2     5 1   
     5     5     6 1   
     6     5    36 1   
     7     5    39 1   
     8     6     7 1   
     9     7     8 ar  
    10     7    12 ar  
    11     8     9 ar  
    12     8    35 1   
    13     9    10 ar  
    14     9    34 1   
    15    10    11 ar  
    16    10    40 1   
    17    11    12 ar  
    18    11    13 1   
    19    12    41 1   
    20    13    14 1   
    21    13    42 1   
    22    13    43 1   
    23    14    15 1   
    24    14    19 1   
    25    14    44 1   
    26    15    16 1   
    27    15    33 1   
    28    15    45 1   
    29    16    17 1   
    30    16    21 1   
    31    16    46 1   
    32    17    18 1   
    33    17    47 1   
    34    17    48 1   
    35    18    19 1   
    36    18    20 2   
    37    19    49 1   
    38    19    50 1   
    39    21    22 1   
    40    21    51 1   
    41    21    75 1   
    42    22    23 1   
    43    22    52 1   
    44    22    53 1   
    45    23    24 ar  
    46    23    28 ar  
    47    24    25 ar  
    48    24    54 1   
    49    25    26 ar  
    50    25    29 1   
    51    26    27 ar  
    52    26    55 1   
    53    27    28 ar  
    54    27    56 1   
    55    28    57 1   
    56    29    30 1   
    57    29    31 1   
    58    29    32 1   
    59    30    58 1   
    60    30    59 1   
    61    30    60 1   
    62    31    61 1   
    63    31    62 1   
    64    31    63 1   
    65    32    64 1   
    66    32    65 1   
    67    32    66 1   
    68    33    67 1   
    69    35    68 1   
    70    35    69 1   
    71    36    37 1   
    72    36    70 1   
    73    36    71 1   
    74    37    38 1   
    75    38    72 1   
    76    38    73 1   
    77    38    74 1   
@<TRIPOS>SUBSTRUCTURE
     1 1YT         1 TEMP              0 ****  ****    0 ROOT
