@<TRIPOS>MOLECULE
1YU
   71    73     1     0     0
SMALL
bcc


@<TRIPOS>ATOM
      1 F1           1.4080    -1.8460     0.0550 f          1 1YU      -0.217633
      2 C2           2.2360    -0.9190    -0.5160 c3         1 1YU       0.633900
      3 F3           3.5020    -1.4230    -0.3650 f          1 1YU      -0.217633
      4 F4           1.9800    -0.9560    -1.8560 f          1 1YU      -0.217633
      5 C5           2.0970     0.5020     0.1450 c3         1 1YU       0.045100
      6 O7           3.1450     1.2800    -0.4150 os         1 1YU      -0.292900
      7 C8           3.6880     2.2230     0.4610 ca         1 1YU      -0.000900
      8 C9           4.7080     1.8290     1.3660 ca         1 1YU       0.156600
      9 C10          5.3010     2.8830     2.1380 ca         1 1YU       0.059900
     10 C11          4.8820     4.2090     1.9950 ca         1 1YU      -0.109000
     11 C13          3.8730     4.5490     1.0870 ca         1 1YU      -0.128300
     12 C14          3.2810     3.5500     0.3150 ca         1 1YU      -0.078000
     13 C16          3.4650     5.9710     0.9260 c3         1 1YU      -0.022100
     14 C19          2.3850     6.3760     1.9300 c3         1 1YU      -0.053700
     15 C21          2.1600     7.8960     1.9130 c3         1 1YU       0.123100
     16 C23          1.2240     8.2860     3.0970 c3         1 1YU       0.163500
     17 C25         -0.1490     7.6990     2.8830 c3         1 1YU      -0.143100
     18 S28         -0.1490     5.9140     2.8280 s4         1 1YU       0.326600
     19 C29          1.0840     5.6720     1.6180 c3         1 1YU      -0.135100
     20 O32         -1.4230     5.6060     2.1640 o          1 1YU      -0.449200
     21 N33          1.1720     9.7880     3.2580 ny         1 1YU      -0.767000
     22 C35          0.6920    10.2290     4.6090 c3         1 1YU       0.175100
     23 C38          1.7270    10.0390     5.6640 ca         1 1YU      -0.176300
     24 C39          2.7830    10.9500     5.7690 ca         1 1YU      -0.107000
     25 C41          3.7460    10.8190     6.7790 ca         1 1YU      -0.042300
     26 C42          3.6260     9.7550     7.6830 ca         1 1YU      -0.084000
     27 C44          2.5710     8.8470     7.5800 ca         1 1YU      -0.118000
     28 C46          1.6200     8.9800     6.5720 ca         1 1YU      -0.110000
     29 C48          4.8630    11.8270     6.8630 c3         1 1YU      -0.017700
     30 C49          4.2730    13.2180     7.0810 c3         1 1YU      -0.089767
     31 C53          5.8230    11.5310     8.0090 c3         1 1YU      -0.089767
     32 C57          5.6580    11.8120     5.5600 c3         1 1YU      -0.089767
     33 O61          3.3580     8.6280     2.1250 oh         1 1YU      -0.627800
     34 F63          6.2900     2.5880     3.0180 f          1 1YU      -0.130900
     35 N64          5.0420     0.5030     1.5550 nv         1 1YU      -0.823200
     36 C67          0.7170     1.1810    -0.1850 c3         1 1YU       0.633900
     37 F68         -0.3530     0.3410    -0.0530 f          1 1YU      -0.217633
     38 F69          0.6300     1.7110    -1.4410 f          1 1YU      -0.217633
     39 F70          0.4480     2.2320     0.6590 f          1 1YU      -0.217633
     40 H1           2.1790     0.3880     1.2590 h1         1 1YU       0.124700
     41 H2           5.3690     4.9870     2.6040 ha         1 1YU       0.151000
     42 H3           2.4910     3.7850    -0.4170 ha         1 1YU       0.160000
     43 H4           4.3750     6.6140     1.0730 hc         1 1YU       0.057700
     44 H5           3.0850     6.1460    -0.1160 hc         1 1YU       0.057700
     45 H6           2.7460     6.0810     2.9560 hc         1 1YU       0.074700
     46 H7           1.6950     8.2030     0.9340 h1         1 1YU       0.063700
     47 H8           1.6840     7.8990     4.0590 hx         1 1YU       0.121700
     48 H9          -0.6180     8.0970     1.9460 h1         1 1YU       0.105200
     49 H10         -0.8400     7.9650     3.7240 h1         1 1YU       0.105200
     50 H11          1.2740     4.5610     1.5600 h1         1 1YU       0.119700
     51 H12          0.7320     5.9560     0.5920 h1         1 1YU       0.119700
     52 H14          0.5560    10.1750     2.5380 hn         1 1YU       0.455800
     53 H16          0.4280    11.3240     4.5190 hx         1 1YU       0.103700
     54 H17         -0.2450     9.6520     4.8550 hx         1 1YU       0.103700
     55 H18          2.8510    11.7910     5.0610 ha         1 1YU       0.135000
     56 H19          4.3600     9.6220     8.4940 ha         1 1YU       0.161000
     57 H20          2.4880     8.0220     8.3060 ha         1 1YU       0.156000
     58 H21          0.7820     8.2700     6.5070 ha         1 1YU       0.134000
     59 H22          3.6090    13.5050     6.2320 hc         1 1YU       0.043811
     60 H23          3.6790    13.2440     8.0260 hc         1 1YU       0.043811
     61 H24          5.0960    13.9690     7.1560 hc         1 1YU       0.043811
     62 H25          6.6340    12.3010     8.0250 hc         1 1YU       0.043811
     63 H26          5.2910    11.5670     8.9900 hc         1 1YU       0.043811
     64 H27          6.2960    10.5280     7.8810 hc         1 1YU       0.043811
     65 H28          6.0900    10.8000     5.3790 hc         1 1YU       0.043811
     66 H29          5.0080    12.0870     4.6950 hc         1 1YU       0.043811
     67 H30          6.4930    12.5510     5.6200 hc         1 1YU       0.043811
     68 H31          3.9330     8.4870     1.3610 ho         1 1YU       0.448000
     69 H32          5.8830     0.3330     2.0610 hn         1 1YU       0.430800
     70 H33          4.8760    -0.1040     0.7810 hn         1 1YU       0.430800
     71 H332         2.1280    10.1490     3.1140 hn         1 1YU       0.455800
@<TRIPOS>BOND
     1     1     2 1   
     2     2     3 1   
     3     2     4 1   
     4     2     5 1   
     5     5     6 1   
     6     5    36 1   
     7     5    40 1   
     8     6     7 1   
     9     7     8 ar  
    10     7    12 ar  
    11     8     9 ar  
    12     8    35 1   
    13     9    10 ar  
    14     9    34 1   
    15    10    11 ar  
    16    10    41 1   
    17    11    12 ar  
    18    11    13 1   
    19    12    42 1   
    20    13    14 1   
    21    13    43 1   
    22    13    44 1   
    23    14    15 1   
    24    14    19 1   
    25    14    45 1   
    26    15    16 1   
    27    15    33 1   
    28    15    46 1   
    29    16    17 1   
    30    16    21 1   
    31    16    47 1   
    32    17    18 1   
    33    17    48 1   
    34    17    49 1   
    35    18    19 1   
    36    18    20 2   
    37    19    50 1   
    38    19    51 1   
    39    21    22 1   
    40    21    52 1   
    41    21    71 1   
    42    22    23 1   
    43    22    53 1   
    44    22    54 1   
    45    23    24 ar  
    46    23    28 ar  
    47    24    25 ar  
    48    24    55 1   
    49    25    26 ar  
    50    25    29 1   
    51    26    27 ar  
    52    26    56 1   
    53    27    28 ar  
    54    27    57 1   
    55    28    58 1   
    56    29    30 1   
    57    29    31 1   
    58    29    32 1   
    59    30    59 1   
    60    30    60 1   
    61    30    61 1   
    62    31    62 1   
    63    31    63 1   
    64    31    64 1   
    65    32    65 1   
    66    32    66 1   
    67    32    67 1   
    68    33    68 1   
    69    35    69 1   
    70    35    70 1   
    71    36    37 1   
    72    36    38 1   
    73    36    39 1   
@<TRIPOS>SUBSTRUCTURE
     1 1YU         1 TEMP              0 ****  ****    0 ROOT
