@<TRIPOS>MOLECULE
1YU
   71    73     1     0     0
SMALL
bcc


@<TRIPOS>ATOM
      1 F1          1.9120    1.7520    1.0540 f         1 1YU     -0.218133
      2 C2          2.4190    2.3420   -0.0670 c3        1 1YU      0.631400
      3 F3          2.5690    3.6690    0.2370 f         1 1YU     -0.218133
      4 F4          3.7030    1.8640   -0.1750 f         1 1YU     -0.218133
      5 C5          1.5910    2.1040   -1.3820 c3        1 1YU      0.047100
      6 O7          1.5620    0.7050   -1.6230 os        1 1YU     -0.291900
      7 C8          2.2720    0.3030   -2.7570 ca        1 1YU      0.000100
      8 C9          1.6600    0.3970   -4.0350 ca        1 1YU      0.155600
      9 C10         2.4010   -0.1650   -5.1280 ca        1 1YU      0.062900
     10 C11         3.6500   -0.7610   -4.9250 ca        1 1YU     -0.105000
     11 C13         4.2100   -0.8330   -3.6460 ca        1 1YU     -0.130300
     12 C14         3.5150   -0.2980   -2.5610 ca        1 1YU     -0.084000
     13 C16         5.5170   -1.5130   -3.4310 c3        1 1YU     -0.022100
     14 C19         6.6070   -0.5360   -2.9940 c3        1 1YU     -0.057700
     15 C21         7.8950   -1.2830   -2.6140 c3        1 1YU      0.124100
     16 C23         8.9040   -0.2760   -1.9840 c3        1 1YU      0.166500
     17 C25         9.3310    0.7480   -3.0080 c3        1 1YU     -0.142100
     18 S28         7.9760    1.7370   -3.6170 s4        1 1YU      0.327600
     19 C29         6.8980    0.4520   -4.1000 c3        1 1YU     -0.131100
     20 O32         8.5060    2.2950   -4.8690 o         1 1YU     -0.452200
     21 N33        10.0890   -1.0080   -1.4030 n4        1 1YU     -0.767000
     22 C35        10.8040   -0.2200   -0.3450 c3        1 1YU      0.177100
     23 C38        11.9820   -0.9760    0.1660 ca        1 1YU     -0.191300
     24 C39        13.2530   -0.7260   -0.3570 ca        1 1YU     -0.100000
     25 C41        14.3770   -1.4030    0.1380 ca        1 1YU     -0.046300
     26 C42        14.1950   -2.3380    1.1660 ca        1 1YU     -0.082000
     27 C44        12.9240   -2.5870    1.6890 ca        1 1YU     -0.117000
     28 C46        11.8130   -1.9110    1.1950 ca        1 1YU     -0.111000
     29 C48        15.7330   -1.0980   -0.4450 c3        1 1YU     -0.017700
     30 C49        16.8380   -1.9250    0.1990 c3        1 1YU     -0.090433
     31 C53        15.7210   -1.4000   -1.9410 c3        1 1YU     -0.090433
     32 C57        16.0530    0.3790   -0.2290 c3        1 1YU     -0.090433
     33 O61         7.6780   -2.2620   -1.6080 oh        1 1YU     -0.629800
     34 F63         1.8770   -0.1230   -6.3780 f         1 1YU     -0.126900
     35 N64         0.4700    1.0710   -4.2230 nh        1 1YU     -0.821200
     36 C67         0.0890    2.5630   -1.2400 c3        1 1YU      0.631400
     37 F68        -0.8000    1.5240   -1.2940 f         1 1YU     -0.218133
     38 F69        -0.1930    3.2410   -0.0890 f         1 1YU     -0.218133
     39 F70        -0.2850    3.3970   -2.2620 f         1 1YU     -0.218133
     40 H1          2.0690    2.6910   -2.2110 h1        1 1YU      0.126700
     41 H2          4.1790   -1.1860   -5.7930 ha        1 1YU      0.157000
     42 H3          3.9240   -0.3490   -1.5390 ha        1 1YU      0.155000
     43 H4          5.3700   -2.2930   -2.6340 hc        1 1YU      0.057700
     44 H5          5.8420   -2.0370   -4.3690 hc        1 1YU      0.057700
     45 H6          6.2300    0.0100   -2.0820 hc        1 1YU      0.075700
     46 H7          8.3440   -1.7660   -3.5260 h1        1 1YU      0.064700
     47 H8          8.3900    0.2270   -1.1080 hx        1 1YU      0.112700
     48 H9         10.0560    1.4800   -2.5670 h1        1 1YU      0.106700
     49 H10         9.8530    0.2610   -3.8720 h1        1 1YU      0.106700
     50 H11         7.2650   -0.0890   -5.0110 h1        1 1YU      0.117700
     51 H12         5.9280    0.9290   -4.4160 h1        1 1YU      0.117700
     52 H14         9.7550   -1.8910   -0.9870 hn        1 1YU      0.456800
     53 H16        10.0690   -0.0170    0.4860 hx        1 1YU      0.103200
     54 H17        11.1210    0.7620   -0.8000 hx        1 1YU      0.103200
     55 H18        13.3800    0.0230   -1.1550 ha        1 1YU      0.139000
     56 H19        15.0550   -2.8880    1.5830 ha        1 1YU      0.162000
     57 H20        12.8030   -3.3210    2.5020 ha        1 1YU      0.157000
     58 H21        10.8170   -2.0990    1.6220 ha        1 1YU      0.138000
     59 H22        16.6570   -3.0160    0.0480 hc        1 1YU      0.044033
     60 H23        16.9070   -1.7110    1.2930 hc        1 1YU      0.044033
     61 H24        17.8190   -1.6660   -0.2690 hc        1 1YU      0.044033
     62 H25        14.9660   -0.7700   -2.4680 hc        1 1YU      0.044033
     63 H26        16.7260   -1.1830   -2.3770 hc        1 1YU      0.044033
     64 H27        15.4810   -2.4760   -2.1190 hc        1 1YU      0.044033
     65 H28        15.3020    1.0270   -0.7390 hc        1 1YU      0.044033
     66 H29        16.0570    0.6210    0.8610 hc        1 1YU      0.044033
     67 H30        17.0620    0.6110   -0.6490 hc        1 1YU      0.044033
     68 H31         7.0970   -2.9430   -1.9730 ho        1 1YU      0.450000
     69 H32        -0.1520    1.0930   -3.4430 hn        1 1YU      0.430300
     70 H33         0.0380    0.9580   -5.1130 hn        1 1YU      0.430300
     71 H332       10.7480   -1.2380   -2.1530 hn        1 1YU      0.456800
@<TRIPOS>BOND
     1    1    2 1
     2    2    3 1
     3    2    4 1
     4    2    5 1
     5    5    6 1
     6    5   36 1
     7    5   40 1
     8    6    7 1
     9    7    8 ar
    10    7   12 ar
    11    8    9 ar
    12    8   35 1
    13    9   10 ar
    14    9   34 1
    15   10   11 ar
    16   10   41 1
    17   11   12 ar
    18   11   13 1
    19   12   42 1
    20   13   14 1
    21   13   43 1
    22   13   44 1
    23   14   15 1
    24   14   19 1
    25   14   45 1
    26   15   16 1
    27   15   33 1
    28   15   46 1
    29   16   17 1
    30   16   21 1
    31   16   47 1
    32   17   18 1
    33   17   48 1
    34   17   49 1
    35   18   19 1
    36   18   20 2
    37   19   50 1
    38   19   51 1
    39   21   22 1
    40   21   52 1
    41   21   71 1
    42   22   23 1
    43   22   53 1
    44   22   54 1
    45   23   24 ar
    46   23   28 ar
    47   24   25 ar
    48   24   55 1
    49   25   26 ar
    50   25   29 1
    51   26   27 ar
    52   26   56 1
    53   27   28 ar
    54   27   57 1
    55   28   58 1
    56   29   30 1
    57   29   31 1
    58   29   32 1
    59   30   59 1
    60   30   60 1
    61   30   61 1
    62   31   62 1
    63   31   63 1
    64   31   64 1
    65   32   65 1
    66   32   66 1
    67   32   67 1
    68   33   68 1
    69   35   69 1
    70   35   70 1
    71   36   37 1
    72   36   38 1
    73   36   39 1
@<TRIPOS>SUBSTRUCTURE
     1 1YU         1 TEMP              0 ****  ****    0 ROOT
