@<TRIPOS>MOLECULE
1YV
   47    48     1     0     0
SMALL
bcc


@<TRIPOS>ATOM
      1 O23          0.1230     1.2080    -1.2680 o          1 1YV      -0.552800
      2 S24          1.1100     0.7450    -0.4200 s6         1 1YV       1.356900
      3 O22          0.8870     0.6160     0.9380 o          1 1YV      -0.552800
      4 C18          2.6500     1.3090    -0.8230 c3         1 1YV      -0.319900
      5 C2           2.6320     2.8260    -0.6690 c3         1 1YV      -0.101100
      6 C1           3.7580     0.7290     0.0320 c3         1 1YV      -0.101100
      7 N21          1.3120    -1.0430    -0.9260 ny         1 1YV      -0.713900
      8 C12          0.7580    -1.3530    -2.2680 c3         1 1YV       0.093800
      9 C19          0.7680    -2.8530    -2.6010 c3         1 1YV      -0.025400
     10 C3          -0.0370    -3.0670    -3.8690 c3         1 1YV      -0.096100
     11 C17          0.2320    -3.6640    -1.4650 ca         1 1YV      -0.153300
     12 C10          0.9740    -4.7420    -0.9670 ca         1 1YV      -0.134000
     13 C11         -1.0240    -3.3870    -0.9120 ca         1 1YV      -0.134000
     14 C9          -1.5270    -4.1660     0.1260 ca         1 1YV      -0.112500
     15 C16         -0.7820    -5.2430     0.6320 cp         1 1YV      -0.006000
     16 C8           0.4730    -5.5230     0.0710 ca         1 1YV      -0.112500
     17 C15         -1.3120    -6.0650     1.7180 cp         1 1YV      -0.050000
     18 C6          -0.4660    -6.5150     2.7430 ca         1 1YV      -0.117500
     19 C7          -2.6700    -6.4140     1.7440 ca         1 1YV      -0.117500
     20 C5          -3.1770    -7.1990     2.7760 ca         1 1YV      -0.089000
     21 C14         -2.3270    -7.6400     3.8000 ca         1 1YV       0.011000
     22 C4          -0.9680    -7.2950     3.7800 ca         1 1YV      -0.089000
     23 C13         -2.8420    -8.4370     4.8590 cg         1 1YV       0.213800
     24 N20         -3.2640    -9.0890     5.7250 n1         1 1YV      -0.324800
     25 H1           2.9140     1.1110    -1.9040 h1         1 1YV       0.148700
     26 H2           2.5140     3.1140     0.4060 hc         1 1YV       0.079700
     27 H3           1.8090     3.2770    -1.2780 hc         1 1YV       0.079700
     28 H4           3.6010     3.2540    -1.0310 hc         1 1YV       0.079700
     29 H5           3.4660     0.7240     1.1130 hc         1 1YV       0.079700
     30 H6           4.6840     1.3520    -0.0650 hc         1 1YV       0.079700
     31 H7           4.0230    -0.3080    -0.2890 hc         1 1YV       0.079700
     32 H8           0.8190    -1.6440    -0.2480 hn         1 1YV       0.459300
     33 H9          -0.3040    -0.9670    -2.3010 hx         1 1YV       0.114700
     34 H10          1.3660    -0.7970    -3.0370 hx         1 1YV       0.114700
     35 H11          1.8350    -3.1630    -2.8030 hc         1 1YV       0.073700
     36 H12          0.3680    -2.4400    -4.6990 hc         1 1YV       0.062367
     37 H13         -1.1110    -2.8060    -3.7070 hc         1 1YV       0.062367
     38 H14          0.0210    -4.1410    -4.1720 hc         1 1YV       0.062367
     39 H15          1.9500    -4.9940    -1.4100 ha         1 1YV       0.140500
     40 H16         -1.6390    -2.5710    -1.3220 ha         1 1YV       0.140500
     41 H17         -2.5180    -3.9390     0.5510 ha         1 1YV       0.156500
     42 H18          1.0580    -6.3790     0.4440 ha         1 1YV       0.156500
     43 H19          0.6010    -6.2450     2.7330 ha         1 1YV       0.141000
     44 H20         -3.3400    -6.0780     0.9370 ha         1 1YV       0.141000
     45 H21         -4.2430    -7.4740     2.7870 ha         1 1YV       0.157000
     46 H22         -0.2990    -7.6430     4.5830 ha         1 1YV       0.157000
     47 H212         2.2870    -1.3400    -0.9030 hn         1 1YV       0.459300
@<TRIPOS>BOND
     1     1     2 2   
     2     2     3 2   
     3     2     4 1   
     4     2     7 1   
     5     4     5 1   
     6     4     6 1   
     7     4    25 1   
     8     5    26 1   
     9     5    27 1   
    10     5    28 1   
    11     6    29 1   
    12     6    30 1   
    13     6    31 1   
    14     7     8 1   
    15     7    32 1   
    16     7    47 1   
    17     8     9 1   
    18     8    33 1   
    19     8    34 1   
    20     9    10 1   
    21     9    11 1   
    22     9    35 1   
    23    10    36 1   
    24    10    37 1   
    25    10    38 1   
    26    11    12 ar  
    27    11    13 ar  
    28    12    16 ar  
    29    12    39 1   
    30    13    14 ar  
    31    13    40 1   
    32    14    15 ar  
    33    14    41 1   
    34    15    16 ar  
    35    15    17 1   
    36    16    42 1   
    37    17    18 ar  
    38    17    19 ar  
    39    18    22 ar  
    40    18    43 1   
    41    19    20 ar  
    42    19    44 1   
    43    20    21 ar  
    44    20    45 1   
    45    21    22 ar  
    46    21    23 1   
    47    22    46 1   
    48    23    24 3   
@<TRIPOS>SUBSTRUCTURE
     1 1YV         1 TEMP              0 ****  ****    0 ROOT
