@<TRIPOS>MOLECULE
molecule
   46    47     1     0     0
SMALL
bcc


@<TRIPOS>ATOM
      1 O23          0.0000     0.0000     0.0000 o          1 1YV      -0.620800
      2 S24          1.4210     0.0000     0.0000 s6         1 1YV       1.328900
      3 O22          2.1530     0.0000     1.2180 o          1 1YV      -0.620800
      4 C18          2.0590    -1.2710    -1.1260 c3         1 1YV      -0.234900
      5 C2           3.5730    -1.1130    -1.2670 c3         1 1YV      -0.075100
      6 C1           1.7400    -2.6580    -0.5630 c3         1 1YV      -0.075100
      7 N21          1.8290     1.4340    -0.7210 n7         1 1YV      -0.873100
      8 C12          1.2370     1.8000    -2.0100 c3         1 1YV       0.205800
      9 C19          1.4710     3.2890    -2.2750 c3         1 1YV      -0.072400
     10 C3           0.7150     4.1170    -1.2330 c3         1 1YV      -0.088100
     11 C17          0.9710     3.6390    -3.6530 ca         1 1YV      -0.063300
     12 C10          1.8470     4.1510    -4.5930 ca         1 1YV      -0.125500
     13 C11         -0.3590     3.4400    -3.9750 ca         1 1YV      -0.125500
     14 C9          -0.8210     3.7530    -5.2370 ca         1 1YV      -0.119000
     15 C16          0.0570     4.2700    -6.1890 cp         1 1YV      -0.049000
     16 C8           1.3960     4.4730    -5.8570 ca         1 1YV      -0.119000
     17 C15         -0.4330     4.6090    -7.5470 cp         1 1YV       0.002000
     18 C6           0.4480     5.1250    -8.4970 ca         1 1YV      -0.118000
     19 C7          -1.7730     4.4040    -7.8760 ca         1 1YV      -0.118000
     20 C5          -2.2290     4.7170    -9.1360 ca         1 1YV      -0.097500
     21 C14         -1.3490     5.2400   -10.0870 ca         1 1YV      -0.043000
     22 C4          -0.0050     5.4400    -9.7590 ca         1 1YV      -0.097500
     23 C13         -1.8220     5.5670   -11.3980 cg         1 1YV       0.235800
     24 N20         -2.2110     5.8120   -12.4380 n1         1 1YV      -0.360800
     25 H1           2.2980    -0.8030    -2.0730 h1         1 1YV       0.147700
     26 H2           4.0170    -1.3490    -2.2270 hc         1 1YV       0.043367
     27 H3           3.6670    -0.0380    -1.3570 hc         1 1YV       0.043367
     28 H4           4.1150    -1.1000    -0.3290 hc         1 1YV       0.043367
     29 H5           0.6890    -2.8850    -0.4270 hc         1 1YV       0.043367
     30 H6           1.9620    -3.5610    -1.1190 hc         1 1YV       0.043367
     31 H7           2.2960    -3.0480     0.2810 hc         1 1YV       0.043367
     32 H8           2.6720     1.8860    -0.4270 hn         1 1YV       0.448800
     33 H9           1.5200     1.2970    -2.9270 h1         1 1YV       0.053200
     34 H10          0.1560     1.7560    -2.0620 h1         1 1YV       0.053200
     35 H11          2.5300     3.5060    -2.2090 hc         1 1YV       0.044700
     36 H12         -0.2040     3.8150    -1.7220 hc         1 1YV       0.060033
     37 H13          1.0360     3.7960    -0.2490 hc         1 1YV       0.060033
     38 H14          1.0310     5.1120    -1.5210 hc         1 1YV       0.060033
     39 H15          2.9050     4.2300    -4.3730 ha         1 1YV       0.142000
     40 H16         -1.2230     2.9960    -3.4960 ha         1 1YV       0.142000
     41 H17         -1.8190     3.4830    -5.5610 ha         1 1YV       0.136000
     42 H18          2.1200     4.5000    -6.6620 ha         1 1YV       0.136000
     43 H19          1.5100     4.9640    -8.3550 ha         1 1YV       0.144000
     44 H20         -2.5030     3.7410    -7.4270 ha         1 1YV       0.144000
     45 H21         -3.2090     4.4310    -9.4980 ha         1 1YV       0.146500
     46 H22          0.3950     6.1430   -10.4790 ha         1 1YV       0.146500
@<TRIPOS>BOND
     1    10     9 1
     2    19    20 ar
     3    19    17 ar
     4    20    21 ar
     5    14    15 ar
     6    14    13 ar
     7    15    17 1
     8    15    16 ar
     9    17    18 ar
    10    13    11 ar
    11    11    12 ar
    12    11     9 1
    13    12    16 ar
    14     9     8 1
    15    21    23 1
    16    21    22 ar
    17    24    23 3
    18    18    22 ar
    19     8     7 1
    20     1     2 2
    21     7     2 1
    22     2     4 1
    23     2     3 2
    24     4     5 1
    25     4     6 1
    26     4    25 1
    27     5    26 1
    28     5    27 1
    29     5    28 1
    30     6    29 1
    31     6    30 1
    32     6    31 1
    33     7    32 1
    34     8    33 1
    35     8    34 1
    36     9    35 1
    37    10    36 1
    38    10    37 1
    39    10    38 1
    40    12    39 1
    41    13    40 1
    42    14    41 1
    43    16    42 1
    44    18    43 1
    45    19    44 1
    46    20    45 1
    47    22    46 1
@<TRIPOS>SUBSTRUCTURE
     1 1YV         1 TEMP              0 ****  ****    0 ROOT
