@<TRIPOS>MOLECULE
molecule
   42    44     1     0     0
SMALL
bcc


@<TRIPOS>ATOM
      1 O21          0.0000     0.0000     0.0000 o          1 1YW      -0.610100
      2 C22          1.2120     0.0000     0.0000 c          1 1YW       0.658100
      3 C20          1.9660     0.0000     1.3050 c3         1 1YW      -0.170100
      4 N19          1.8860    -0.0060    -1.1670 ns         1 1YW      -0.588900
      5 C18          1.1540    -0.0130    -2.4360 c3         1 1YW       0.119000
      6 C17          2.1480    -0.0190    -3.5990 c3         1 1YW       0.078100
      7 O8           2.7890    -1.3050    -3.7240 os         1 1YW      -0.159300
      8 C9           1.4130     0.1000    -4.9550 c3         1 1YW      -0.180700
      9 C6           2.2250    -0.8160    -5.8520 ce         1 1YW       0.375900
     10 N10          2.9670    -1.5620    -5.1020 n2         1 1YW      -0.370200
     11 C4           2.1770    -0.8490    -7.3260 ca         1 1YW      -0.099900
     12 C2           2.9830    -1.7450    -8.0320 ca         1 1YW      -0.100000
     13 C5           1.3220     0.0130    -8.0170 ca         1 1YW      -0.141000
     14 C3           1.2790    -0.0200    -9.3950 ca         1 1YW       0.086900
     15 F7           0.4540     0.8120   -10.0660 f          1 1YW      -0.135900
     16 C11          2.0880    -0.9120   -10.0960 ca         1 1YW       0.071600
     17 C1           2.9360    -1.7740    -9.4090 ca         1 1YW      -0.090000
     18 N15          2.0420    -0.9440   -11.4900 nh         1 1YW      -0.605000
     19 C13          2.2070     0.4120   -12.0570 c3         1 1YW       0.151300
     20 C14          0.7620    -1.4990   -11.9640 c3         1 1YW       0.151300
     21 C16          0.1200    -0.4430   -12.8870 c3         1 1YW      -0.095900
     22 C12          1.3330     0.4140   -13.3360 c3         1 1YW      -0.095900
     23 H1           2.6450    -0.8430     1.3300 hc         1 1YW       0.061700
     24 H2           2.5290     0.9210     1.3970 hc         1 1YW       0.061700
     25 H3           1.2640    -0.0770     2.1270 hc         1 1YW       0.061700
     26 H4           2.8870     0.0050    -1.1670 hn         1 1YW       0.320500
     27 H5           0.5310     0.8710    -2.4980 h1         1 1YW       0.065700
     28 H6           0.5310    -0.8980    -2.4880 h1         1 1YW       0.065700
     29 H7           2.8840     0.7680    -3.4910 h1         1 1YW       0.065700
     30 H8           1.4460     1.1200    -5.3200 hc         1 1YW       0.076700
     31 H9           0.3930    -0.2540    -4.8710 hc         1 1YW       0.076700
     32 H10          3.6440    -2.4170    -7.4980 ha         1 1YW       0.159000
     33 H11          0.6520     0.6660    -7.4700 ha         1 1YW       0.147000
     34 H12          3.5620    -2.4680    -9.9580 ha         1 1YW       0.159000
     35 H13          3.2450     0.5900   -12.3100 h1         1 1YW       0.053700
     36 H14          1.8500     1.1580   -11.3570 h1         1 1YW       0.053700
     37 H15          0.9410    -2.4120   -12.5200 h1         1 1YW       0.053700
     38 H16          0.1120    -1.6950   -11.1210 h1         1 1YW       0.053700
     39 H17         -0.5910     0.1620   -12.3370 hc         1 1YW       0.054200
     40 H18         -0.3490    -0.9160   -13.7410 hc         1 1YW       0.054200
     41 H19          1.8540    -0.0580   -14.1600 hc         1 1YW       0.054200
     42 H20          1.0220     1.4200   -13.5890 hc         1 1YW       0.054200
@<TRIPOS>BOND
     1     7     6 1   
     2     7    10 1   
     3     6     8 1   
     4     6     5 1   
     5     8     9 1   
     6    10     9 2   
     7     9    11 1   
     8    13    11 ar  
     9    13    14 ar  
    10    15    14 1   
    11    11    12 ar  
    12    14    16 ar  
    13    12    17 ar  
    14    16    18 1   
    15    16    17 ar  
    16    21    20 1   
    17    21    22 1   
    18    18    20 1   
    19    18    19 1   
    20    19    22 1   
    21     5     4 1   
    22     4     2 1   
    23     1     2 2   
    24     2     3 1   
    25     3    23 1   
    26     3    24 1   
    27     3    25 1   
    28     4    26 1   
    29     5    27 1   
    30     5    28 1   
    31     6    29 1   
    32     8    30 1   
    33     8    31 1   
    34    12    32 1   
    35    13    33 1   
    36    17    34 1   
    37    19    35 1   
    38    19    36 1   
    39    20    37 1   
    40    20    38 1   
    41    21    39 1   
    42    21    40 1   
    43    22    41 1   
    44    22    42 1   
@<TRIPOS>SUBSTRUCTURE
     1 1YW         1 TEMP              0 ****  ****    0 ROOT
