@<TRIPOS>MOLECULE
1YW
   43    45     1     0     0
SMALL
bcc


@<TRIPOS>ATOM
      1 O21          0.3460    -0.4740     0.1000 o          1 1YW      -0.408100
      2 C22          1.5360    -0.2290    -0.0020 c          1 1YW       0.556100
      3 C20          2.6220    -0.4650     0.9890 c3         1 1YW      -0.192100
      4 N19          1.9870     0.4050    -1.3100 ny         1 1YW      -0.682800
      5 C18          1.2100    -0.0290    -2.5080 c3         1 1YW       0.093800
      6 C17          1.7030    -1.3360    -3.1350 c3         1 1YW       0.067100
      7 O8           3.1660    -1.4250    -2.9590 os         1 1YW      -0.176300
      8 C9           1.1680    -2.6180    -2.4800 c3         1 1YW      -0.188700
      9 C6           2.4620    -3.2510    -1.9680 ce         1 1YW       0.411900
     10 N10          3.5140    -2.5020    -2.2690 n2         1 1YW      -0.416200
     11 C4           2.4670    -4.5050    -1.2520 ca         1 1YW      -0.228900
     12 C2           3.6680    -5.1670    -0.9470 ca         1 1YW      -0.031000
     13 C5           1.2570    -5.0990    -0.8640 ca         1 1YW      -0.087000
     14 C3           1.2370    -6.3150    -0.1810 ca         1 1YW       0.030900
     15 F7           0.0300    -6.8240     0.1770 f          1 1YW      -0.137900
     16 C11          2.4590    -7.0080     0.1390 ca         1 1YW       0.234600
     17 C1           3.6670    -6.3750    -0.2750 ca         1 1YW      -0.220000
     18 N15          2.4900    -8.1810     0.8440 nh         1 1YW      -0.658000
     19 C13          3.7240    -8.9240     1.0560 c3         1 1YW       0.204800
     20 C14          1.3220    -8.9970     1.1410 c3         1 1YW       0.204800
     21 C16          1.8230   -10.3430     1.6870 c3         1 1YW      -0.089900
     22 C12          3.3460   -10.2940     1.6400 c3         1 1YW      -0.089900
     23 H1           3.3180    -1.2640     0.6180 hc         1 1YW       0.119367
     24 H2           3.2080     0.4680     1.1880 hc         1 1YW       0.119367
     25 H3           2.1580    -0.8140     1.9510 hc         1 1YW       0.119367
     26 H4           1.9010     1.4220    -1.2140 hn         1 1YW       0.471800
     27 H5           0.1240    -0.1340    -2.2190 hx         1 1YW       0.120200
     28 H6           1.3050     0.7950    -3.2760 hx         1 1YW       0.120200
     29 H7           1.5200    -1.3000    -4.2410 h1         1 1YW       0.126700
     30 H8           0.4530    -2.4130    -1.6470 hc         1 1YW       0.099700
     31 H9           0.6720    -3.2850    -3.2280 hc         1 1YW       0.099700
     32 H10          4.6330    -4.7290    -1.2530 ha         1 1YW       0.154000
     33 H11          0.2930    -4.6180    -1.0960 ha         1 1YW       0.141000
     34 H12          4.6360    -6.8540    -0.0600 ha         1 1YW       0.153000
     35 H13          4.2800    -9.0500     0.0850 h1         1 1YW       0.057450
     36 H14          4.3810    -8.3500     1.7660 h1         1 1YW       0.057450
     37 H15          0.7040    -9.1500     0.2130 h1         1 1YW       0.057450
     38 H16          0.6870    -8.4640     1.9010 h1         1 1YW       0.057450
     39 H17          1.4290   -11.1820     1.0630 hc         1 1YW       0.063950
     40 H18          1.4600   -10.4930     2.7330 hc         1 1YW       0.063950
     41 H19          3.7560   -11.1120     0.9990 hc         1 1YW       0.063950
     42 H20          3.7820   -10.4090     2.6630 hc         1 1YW       0.063950
     43 H192         2.9820     0.1720    -1.4670 hn         1 1YW       0.471800
@<TRIPOS>BOND
     1     1     2 2   
     2     2     3 1   
     3     2     4 1   
     4     3    23 1   
     5     3    24 1   
     6     3    25 1   
     7     4     5 1   
     8     4    26 1   
     9     4    43 1   
    10     5     6 1   
    11     5    27 1   
    12     5    28 1   
    13     6     7 1   
    14     6     8 1   
    15     6    29 1   
    16     7    10 1   
    17     8     9 1   
    18     8    30 1   
    19     8    31 1   
    20     9    10 2   
    21     9    11 1   
    22    11    12 ar  
    23    11    13 ar  
    24    12    17 ar  
    25    12    32 1   
    26    13    14 ar  
    27    13    33 1   
    28    14    15 1   
    29    14    16 ar  
    30    16    17 ar  
    31    16    18 1   
    32    17    34 1   
    33    18    19 1   
    34    18    20 1   
    35    19    22 1   
    36    19    35 1   
    37    19    36 1   
    38    20    21 1   
    39    20    37 1   
    40    20    38 1   
    41    21    22 1   
    42    21    39 1   
    43    21    40 1   
    44    22    41 1   
    45    22    42 1   
@<TRIPOS>SUBSTRUCTURE
     1 1YW         1 TEMP              0 ****  ****    0 ROOT
