@<TRIPOS>MOLECULE
1YW
   42    44     1     0     0
SMALL
bcc


@<TRIPOS>ATOM
      1 O21          0.0000     0.0000     0.0000 o          1 1YW      -0.647100
      2 C22          1.2120     0.0000     0.0000 c          1 1YW       0.572100
      3 C20          1.9660     0.0000     1.3050 c3         1 1YW      -0.066100
      4 N19          1.8860    -0.0060    -1.1670 ns         1 1YW      -0.202900
      5 C18          1.1540    -0.0130    -2.4360 c3         1 1YW       0.051000
      6 C17          2.1480    -0.0190    -3.5990 c3         1 1YW       0.125100
      7 O8           2.7890    -1.3050    -3.7240 os         1 1YW      -0.159300
      8 C9           1.4130     0.1000    -4.9550 c3         1 1YW      -0.112700
      9 C6           2.2250    -0.8160    -5.8520 ce         1 1YW       0.361900
     10 N10          2.9670    -1.5620    -5.1020 n2         1 1YW      -0.339200
     11 C4           2.1770    -0.8490    -7.3260 ca         1 1YW      -0.096900
     12 C2           2.9830    -1.7450    -8.0320 ca         1 1YW      -0.073000
     13 C5           1.3220     0.0130    -8.0170 ca         1 1YW      -0.113000
     14 C3           1.2790    -0.0200    -9.3950 ca         1 1YW       0.068900
     15 F7           0.4540     0.8120   -10.0660 f          1 1YW      -0.122900
     16 C11          2.0880    -0.9120   -10.0960 ca         1 1YW       0.005600
     17 C1           2.9360    -1.7740    -9.4090 ca         1 1YW      -0.061000
     18 N15          2.0420    -0.9440   -11.4900 nh         1 1YW      -0.404000
     19 C13          2.2070     0.4120   -12.0570 c3         1 1YW       0.136800
     20 C14          0.7620    -1.4990   -11.9640 c3         1 1YW       0.136800
     21 C16          0.1200    -0.4430   -12.8870 c3         1 1YW      -0.034900
     22 C12          1.3330     0.4140   -13.3360 c3         1 1YW      -0.034900
     23 H1           2.6450    -0.8430     1.3300 hc         1 1YW       0.023367
     24 H2           2.5290     0.9210     1.3970 hc         1 1YW       0.023367
     25 H3           1.2640    -0.0770     2.1270 hc         1 1YW       0.023367
     26 H4           2.8870     0.0050    -1.1670 hn         1 1YW       0.180500
     27 H5           0.5310     0.8710    -2.4980 h1         1 1YW       0.037200
     28 H6           0.5310    -0.8980    -2.4880 h1         1 1YW       0.037200
     29 H7           2.8840     0.7680    -3.4910 h1         1 1YW       0.032700
     30 H8           1.4460     1.1200    -5.3200 hc         1 1YW       0.044200
     31 H9           0.3930    -0.2540    -4.8710 hc         1 1YW       0.044200
     32 H10          3.6440    -2.4170    -7.4980 ha         1 1YW       0.129000
     33 H11          0.6520     0.6660    -7.4700 ha         1 1YW       0.122000
     34 H12          3.5620    -2.4680    -9.9580 ha         1 1YW       0.124000
     35 H13          3.2450     0.5900   -12.3100 h1         1 1YW       0.023950
     36 H14          1.8500     1.1580   -11.3570 h1         1 1YW       0.023950
     37 H15          0.9410    -2.4120   -12.5200 h1         1 1YW       0.023950
     38 H16          0.1120    -1.6950   -11.1210 h1         1 1YW       0.023950
     39 H17         -0.5910     0.1620   -12.3370 hc         1 1YW       0.023200
     40 H18         -0.3490    -0.9160   -13.7410 hc         1 1YW       0.023200
     41 H19          1.8540    -0.0580   -14.1600 hc         1 1YW       0.023200
     42 H20          1.0220     1.4200   -13.5890 hc         1 1YW       0.023200
@<TRIPOS>BOND
     1     1     2 2   
     2     2     3 1   
     3     2     4 1   
     4     3    23 1   
     5     3    24 1   
     6     3    25 1   
     7     4     5 1   
     8     4    26 1   
     9     5     6 1   
    10     5    27 1   
    11     5    28 1   
    12     6     7 1   
    13     6     8 1   
    14     6    29 1   
    15     7    10 1   
    16     8     9 1   
    17     8    30 1   
    18     8    31 1   
    19     9    10 2   
    20     9    11 1   
    21    11    12 ar  
    22    11    13 ar  
    23    12    17 ar  
    24    12    32 1   
    25    13    14 ar  
    26    13    33 1   
    27    14    15 1   
    28    14    16 ar  
    29    16    17 ar  
    30    16    18 1   
    31    17    34 1   
    32    18    19 1   
    33    18    20 1   
    34    19    22 1   
    35    19    35 1   
    36    19    36 1   
    37    20    21 1   
    38    20    37 1   
    39    20    38 1   
    40    21    22 1   
    41    21    39 1   
    42    21    40 1   
    43    22    41 1   
    44    22    42 1   
@<TRIPOS>SUBSTRUCTURE
     1 1YW         1 TEMP              0 ****  ****    0 ROOT
