@<TRIPOS>MOLECULE
molecule
   56    58     1     0     0
SMALL
bcc


@<TRIPOS>ATOM
      1 C1           0.0000     0.0000     0.0000 c3         1 1YX      -0.071600
      2 C2           1.5300     0.0000     0.0000 c3         1 1YX      -0.210900
      3 C3           2.0390     0.0000     1.4430 c3         1 1YX      -0.071600
      4 S1           2.1350    -1.4810    -0.8550 s6         1 1YX       1.333900
      5 O1           3.5420    -1.4110    -1.0380 o          1 1YX      -0.629800
      6 O2           1.5230    -2.6480    -0.3240 o          1 1YX      -0.629800
      7 N1           1.5180    -1.3550    -2.3860 n7         1 1YX      -0.912100
      8 C4           1.9480    -0.2630    -3.2620 c3         1 1YX       0.240800
      9 C5           1.5390    -0.5730    -4.7040 c3         1 1YX       0.090100
     10 C6           1.9510     0.5750    -5.6560 c3         1 1YX      -0.183700
     11 C7           0.7860     0.6330    -6.6250 ce         1 1YX       0.374900
     12 N2          -0.2000    -0.0250    -6.1130 n2         1 1YX      -0.367200
     13 O3           0.1040    -0.5720    -4.8450 os         1 1YX      -0.160300
     14 C8           0.7800     1.3240    -7.9280 ca         1 1YX      -0.093900
     15 C9          -0.3650     1.3000    -8.7280 ca         1 1YX      -0.098000
     16 C10         -0.3670     1.9450    -9.9450 ca         1 1YX      -0.146000
     17 C11          0.7680     2.6210   -10.3800 ca         1 1YX       0.053600
     18 C12          1.9110     2.6470    -9.5850 ca         1 1YX       0.158900
     19 C13          1.9180     2.0090    -8.3640 ca         1 1YX      -0.149000
     20 F1           3.0130     3.3040   -10.0100 f          1 1YX      -0.121900
     21 N3           0.7610     3.2730   -11.6120 nh         1 1YX      -0.590000
     22 C14          0.4340     2.3290   -12.7120 c3         1 1YX       0.146800
     23 C15         -0.0410     3.2640   -13.8520 c3         1 1YX      -0.098400
     24 C16         -0.8220     4.3620   -13.0970 c3         1 1YX       0.107700
     25 C17         -0.2860     4.3170   -11.6540 c3         1 1YX       0.137800
     26 N4          -0.5630     5.6740   -13.6950 ns         1 1YX      -0.583900
     27 C18         -1.3040     6.0980   -14.7380 c          1 1YX       0.656100
     28 O4          -2.1860     5.3930   -15.1810 o          1 1YX      -0.610100
     29 C19         -1.0370     7.4480   -15.3530 c3         1 1YX      -0.171100
     30 H1          -0.3610    -1.0020     0.1990 hc         1 1YX       0.050867
     31 H2          -0.3610     0.6740     0.7680 hc         1 1YX       0.050867
     32 H3          -0.3610     0.3280    -0.9670 hc         1 1YX       0.050867
     33 H4           1.8910     0.8850    -0.5100 h1         1 1YX       0.094700
     34 H5           3.1220    -0.0180     1.4430 hc         1 1YX       0.050867
     35 H6           1.6930     0.8930     1.9480 hc         1 1YX       0.050867
     36 H7           1.6640    -0.8750     1.9580 hc         1 1YX       0.050867
     37 H8           0.8780    -2.0460    -2.7250 hn         1 1YX       0.467800
     38 H9           3.0240    -0.1580    -3.2060 h1         1 1YX       0.055200
     39 H10          1.4780     0.6610    -2.9440 h1         1 1YX       0.055200
     40 H11          1.9560    -1.5160    -5.0370 h1         1 1YX       0.077700
     41 H12          2.8700     0.3300    -6.1750 hc         1 1YX       0.075700
     42 H13          2.0450     1.5080    -5.1130 hc         1 1YX       0.075700
     43 H14         -1.2500     0.7740    -8.3920 ha         1 1YX       0.158000
     44 H15         -1.2560     1.9260   -10.5650 ha         1 1YX       0.147000
     45 H16          2.8080     2.0300    -7.7460 ha         1 1YX       0.150000
     46 H17         -0.3620     1.6580   -12.4130 h1         1 1YX       0.052200
     47 H18          1.3160     1.7770   -13.0140 h1         1 1YX       0.052200
     48 H19          0.8080     3.6900   -14.3740 hc         1 1YX       0.067200
     49 H20         -0.6930     2.7320   -14.5350 hc         1 1YX       0.067200
     50 H21         -1.8830     4.1410   -13.1080 h1         1 1YX       0.084700
     51 H22          0.1410     5.2770   -11.3890 h1         1 1YX       0.054200
     52 H23         -1.0880     4.0620   -10.9710 h1         1 1YX       0.054200
     53 H24          0.1530     6.2640   -13.3170 hn         1 1YX       0.318500
     54 H25         -1.2930     8.2250   -14.6430 hc         1 1YX       0.061367
     55 H26         -1.6380     7.5630   -16.2470 hc         1 1YX       0.061367
     56 H27          0.0130     7.5260   -15.6110 hc         1 1YX       0.061367
@<TRIPOS>BOND
     1    10     9 1   
     2    10    11 1   
     3     9    13 1   
     4     9     8 1   
     5    22    23 1   
     6    22    21 1   
     7    19    14 ar  
     8    19    18 ar  
     9    11    14 1   
    10    11    12 2   
    11    20    18 1   
    12    13    12 1   
    13    23    24 1   
    14    14    15 ar  
    15    18    17 ar  
    16    17    16 ar  
    17    17    21 1   
    18    15    16 ar  
    19    21    25 1   
    20    25    24 1   
    21    24    26 1   
    22     8     7 1   
    23     7     4 1   
    24    26    27 1   
    25     6     4 2   
    26    28    27 2   
    27    27    29 1   
    28     4     5 2   
    29     4     2 1   
    30     1     2 1   
    31     2     3 1   
    32     1    30 1   
    33     1    31 1   
    34     1    32 1   
    35     2    33 1   
    36     3    34 1   
    37     3    35 1   
    38     3    36 1   
    39     7    37 1   
    40     8    38 1   
    41     8    39 1   
    42     9    40 1   
    43    10    41 1   
    44    10    42 1   
    45    15    43 1   
    46    16    44 1   
    47    19    45 1   
    48    22    46 1   
    49    22    47 1   
    50    23    48 1   
    51    23    49 1   
    52    24    50 1   
    53    25    51 1   
    54    25    52 1   
    55    26    53 1   
    56    29    54 1   
    57    29    55 1   
    58    29    56 1   
@<TRIPOS>SUBSTRUCTURE
     1 1YX         1 TEMP              0 ****  ****    0 ROOT
