@<TRIPOS>MOLECULE
1YX
   58    60     1     0     0
SMALL
bcc


@<TRIPOS>ATOM
      1 C1          -1.1850     0.2550    -0.9160 c3         1 1YX      -0.102100
      2 C2          -0.2510    -0.0290     0.2430 c3         1 1YX      -0.321900
      3 C3          -1.0360     0.0210     1.5510 c3         1 1YX      -0.102100
      4 S1           0.4920    -1.5340     0.1610 s6         1 1YX       1.358900
      5 O1           1.4880    -1.7180     1.0990 o          1 1YX      -0.548300
      6 O2          -0.3230    -2.5700    -0.2400 o          1 1YX      -0.548300
      7 N1           1.5720    -1.2440    -1.3840 ny         1 1YX      -0.704900
      8 C4           1.1660    -2.0710    -2.5420 c3         1 1YX       0.102800
      9 C5           1.9290    -1.7830    -3.8330 c3         1 1YX       0.065100
     10 C6           3.3190    -2.4290    -3.9530 c3         1 1YX      -0.180700
     11 C7           4.2010    -1.1960    -4.1340 ce         1 1YX       0.364900
     12 N2           3.4890    -0.0810    -4.0730 n2         1 1YX      -0.355200
     13 O3           2.2070    -0.3290    -3.9020 os         1 1YX      -0.165300
     14 C8           5.6310    -1.2920    -4.3760 ca         1 1YX      -0.130900
     15 C9           6.3800    -0.1670    -4.7470 ca         1 1YX      -0.063000
     16 C10          7.7390    -0.2760    -5.0220 ca         1 1YX      -0.159000
     17 C11          8.4170    -1.5110    -4.9340 ca         1 1YX       0.118600
     18 C12          7.6470    -2.6480    -4.5320 ca         1 1YX       0.099900
     19 C13          6.2750    -2.5290    -4.2670 ca         1 1YX      -0.114000
     20 F1           8.2200    -3.8690    -4.3950 f          1 1YX      -0.127900
     21 N3           9.8140    -1.6090    -5.1250 nh         1 1YX      -0.633000
     22 C14         10.3310    -2.8190    -5.7770 c3         1 1YX       0.157800
     23 C15         11.5980    -2.4360    -6.5590 c3         1 1YX      -0.118400
     24 C16         11.8820    -0.9680    -6.1840 c3         1 1YX       0.118500
     25 C17         10.5000    -0.4500    -5.6870 c3         1 1YX       0.152800
     26 N4          12.9340    -0.8570    -5.1130 ny         1 1YX      -0.689800
     27 C18         13.4420     0.5700    -4.9650 c          1 1YX       0.555100
     28 O4          12.8070     1.2700    -4.1950 o          1 1YX      -0.397100
     29 C19         14.6530     0.9110    -5.7590 c3         1 1YX      -0.190100
     30 H1          -1.8850    -0.6030    -1.0810 hc         1 1YX       0.083533
     31 H2          -1.8070     1.1600    -0.6930 hc         1 1YX       0.083533
     32 H3          -0.6180     0.4630    -1.8560 hc         1 1YX       0.083533
     33 H4           0.4900     0.8260     0.2980 h1         1 1YX       0.154700
     34 H5          -1.4720     1.0420     1.6890 hc         1 1YX       0.083533
     35 H6          -1.8830    -0.7090     1.5340 hc         1 1YX       0.083533
     36 H7          -0.3660    -0.1860     2.4240 hc         1 1YX       0.083533
     37 H8           1.5570    -0.2650    -1.6850 hn         1 1YX       0.457800
     38 H9           0.0660    -1.8730    -2.7220 hx         1 1YX       0.120200
     39 H10          1.2870    -3.1610    -2.2730 hx         1 1YX       0.120200
     40 H11          1.2700    -2.0180    -4.7110 h1         1 1YX       0.130700
     41 H12          3.3810    -3.1010    -4.8440 hc         1 1YX       0.096200
     42 H13          3.6090    -3.0080    -3.0440 hc         1 1YX       0.096200
     43 H14          5.8970     0.8210    -4.8370 ha         1 1YX       0.170000
     44 H15          8.2790     0.6410    -5.3080 ha         1 1YX       0.148000
     45 H16          5.7210    -3.4350    -3.9730 ha         1 1YX       0.157000
     46 H17          9.5770    -3.2910    -6.4660 h1         1 1YX       0.087200
     47 H18         10.5660    -3.5630    -4.9650 h1         1 1YX       0.087200
     48 H19         11.4110    -2.4910    -7.6630 hc         1 1YX       0.094700
     49 H20         12.4380    -3.1350    -6.3260 hc         1 1YX       0.094700
     50 H21         12.2430    -0.3730    -7.0680 hx         1 1YX       0.116700
     51 H22          9.9700    -0.0050    -6.5780 h1         1 1YX       0.089700
     52 H23         10.5890     0.3440    -4.8940 h1         1 1YX       0.089700
     53 H24         13.7160    -1.4760    -5.3480 hn         1 1YX       0.465300
     54 H25         14.8130     2.0230    -5.7070 hc         1 1YX       0.119700
     55 H26         14.5450     0.6110    -6.8320 hc         1 1YX       0.119700
     56 H27         15.5560     0.4060    -5.3240 hc         1 1YX       0.119700
     57 H121         2.5440    -1.4570    -1.1510 hn         1 1YX       0.457800
     58 H42         12.5210    -1.1670    -4.2220 hn         1 1YX       0.465300
@<TRIPOS>BOND
     1     1     2 1   
     2     1    30 1   
     3     1    31 1   
     4     1    32 1   
     5     2     3 1   
     6     2     4 1   
     7     2    33 1   
     8     3    34 1   
     9     3    35 1   
    10     3    36 1   
    11     4     5 2   
    12     4     6 2   
    13     4     7 1   
    14     7     8 1   
    15     7    37 1   
    16     7    57 1   
    17     8     9 1   
    18     8    38 1   
    19     8    39 1   
    20     9    10 1   
    21     9    13 1   
    22     9    40 1   
    23    10    11 1   
    24    10    41 1   
    25    10    42 1   
    26    11    12 2   
    27    11    14 1   
    28    12    13 1   
    29    14    15 ar  
    30    14    19 ar  
    31    15    16 ar  
    32    15    43 1   
    33    16    17 ar  
    34    16    44 1   
    35    17    18 ar  
    36    17    21 1   
    37    18    19 ar  
    38    18    20 1   
    39    19    45 1   
    40    21    22 1   
    41    21    25 1   
    42    22    23 1   
    43    22    46 1   
    44    22    47 1   
    45    23    24 1   
    46    23    48 1   
    47    23    49 1   
    48    24    25 1   
    49    24    26 1   
    50    24    50 1   
    51    25    51 1   
    52    25    52 1   
    53    26    27 1   
    54    26    53 1   
    55    26    58 1   
    56    27    28 2   
    57    27    29 1   
    58    29    54 1   
    59    29    55 1   
    60    29    56 1   
@<TRIPOS>SUBSTRUCTURE
     1 1YX         1 TEMP              0 ****  ****    0 ROOT
