@<TRIPOS>MOLECULE
1YY
   65    68     1     0     0
SMALL
bcc


@<TRIPOS>ATOM
      1 C22          1.8230     0.3030     0.2320 c3         1 1YY      -0.126100
      2 C21          2.6000    -0.9410    -0.1980 c3         1 1YY       0.152500
      3 C20          3.0000    -1.7260     1.0730 c3         1 1YY       0.131400
      4 O4           1.8890    -2.3910     1.6590 os         1 1YY      -0.416600
      5 C19          1.2440    -3.2740     0.7480 c3         1 1YY       0.128400
      6 C18          0.8300    -2.5670    -0.5470 c3         1 1YY       0.127800
      7 N3           1.9370    -1.8350    -1.1460 n3         1 1YY      -0.746600
      8 C5           1.6130    -1.2440    -2.4310 c3         1 1YY       0.145800
      9 C3           2.7970    -1.3670    -3.4380 c3         1 1YY       0.197500
     10 C2           2.9390    -2.8530    -3.8810 c3         1 1YY       0.231800
     11 N1           1.9410    -3.2760    -4.8280 n3         1 1YY      -0.817500
     12 S1           0.9520    -4.5460    -4.5630 sy         1 1YY       1.555200
     13 O1           0.0630    -4.6720    -5.6540 o          1 1YY      -0.662300
     14 O2           0.3510    -4.4250    -3.2920 o          1 1YY      -0.662300
     15 C6           1.9860    -5.8450    -4.5380 cc         1 1YY      -0.500600
     16 C7           2.4440    -6.3650    -3.3160 cd         1 1YY      -0.030000
     17 C8           3.2810    -7.4880    -3.4920 cd         1 1YY      -0.179000
     18 C9           3.4310    -7.7820    -4.8450 cc         1 1YY      -0.180100
     19 S2           2.5910    -6.7440    -5.7880 ss         1 1YY       0.280200
     20 C1           1.8050    -2.3940    -5.9570 c3         1 1YY       0.214800
     21 C4           1.6620    -0.9070    -5.5480 c3         1 1YY       0.187800
     22 N2           2.6840    -0.5000    -4.6030 nh         1 1YY      -0.659000
     23 C10          2.9710     0.8700    -4.4740 ca         1 1YY       0.187600
     24 C15          3.0390     1.7000    -5.6240 ca         1 1YY      -0.195500
     25 C14          3.4050     3.0340    -5.5210 ca         1 1YY      -0.063000
     26 C11          3.2970     1.4600    -3.2300 ca         1 1YY      -0.195500
     27 C12          3.6710     2.7960    -3.1430 ca         1 1YY      -0.063000
     28 C13          3.7220     3.6030    -4.2820 ca         1 1YY      -0.148300
     29 C16          4.0840     5.0540    -4.1890 c3         1 1YY       0.207100
     30 C23          5.4160     5.3670    -5.0080 c3         1 1YY       0.585900
     31 F2           5.8960     6.6270    -4.7340 f          1 1YY      -0.238633
     32 F3           5.2720     5.3430    -6.3710 f          1 1YY      -0.238633
     33 F1           6.4700     4.5370    -4.7470 f          1 1YY      -0.238633
     34 C17          2.9780     5.9520    -4.7300 c3         1 1YY      -0.133100
     35 O3           4.3690     5.3640    -2.8340 oh         1 1YY      -0.575800
     36 H1           0.8900     0.0110     0.7710 hc         1 1YY       0.043700
     37 H2           1.5530     0.9430    -0.6410 hc         1 1YY       0.043700
     38 H3           2.4550     0.9100     0.9250 hc         1 1YY       0.043700
     39 H4           3.5560    -0.6000    -0.6980 h1         1 1YY       0.052700
     40 H5           3.3560    -1.0210     1.8690 h1         1 1YY       0.051200
     41 H6           3.8010    -2.4720     0.8310 h1         1 1YY       0.051200
     42 H7           1.9230    -4.1390     0.5260 h1         1 1YY       0.051200
     43 H8           0.3350    -3.6300     1.3000 h1         1 1YY       0.051200
     44 H9          -0.0410    -1.8860    -0.3200 h1         1 1YY       0.061700
     45 H10          0.4830    -3.3470    -1.2860 h1         1 1YY       0.061700
     46 H12          1.3260    -0.1570    -2.3380 h1         1 1YY       0.049200
     47 H13          0.7230    -1.7810    -2.8700 h1         1 1YY       0.049200
     48 H14          3.7640    -1.1020    -2.9160 h1         1 1YY       0.076700
     49 H15          3.9630    -2.9820    -4.3390 h1         1 1YY       0.061200
     50 H16          2.8750    -3.5020    -2.9620 h1         1 1YY       0.061200
     51 H17          2.1640    -5.9510    -2.3390 ha         1 1YY       0.177000
     52 H18          3.7410    -8.0440    -2.6730 ha         1 1YY       0.165000
     53 H19          4.0320    -8.6080    -5.2290 h4         1 1YY       0.181000
     54 H20          0.8910    -2.6780    -6.5540 h1         1 1YY       0.065200
     55 H21          2.7110    -2.4980    -6.6210 h1         1 1YY       0.065200
     56 H22          0.6330    -0.7450    -5.1120 h1         1 1YY       0.048200
     57 H23          1.7380    -0.3000    -6.4900 h1         1 1YY       0.048200
     58 H24          2.8290     1.2980    -6.6250 ha         1 1YY       0.139000
     59 H25          3.4640     3.6470    -6.4360 ha         1 1YY       0.147000
     60 H26          3.2620     0.8730    -2.2980 ha         1 1YY       0.139000
     61 H27          3.9250     3.2240    -2.1590 ha         1 1YY       0.147000
     62 H28          2.7510     5.6880    -5.7900 hc         1 1YY       0.062700
     63 H29          3.2960     7.0220    -4.6840 hc         1 1YY       0.062700
     64 H30          2.0580     5.8180    -4.1120 hc         1 1YY       0.062700
     65 H31          4.5040     6.3210    -2.7830 ho         1 1YY       0.420000
@<TRIPOS>BOND
     1     1     2 1   
     2     1    36 1   
     3     1    37 1   
     4     1    38 1   
     5     2     3 1   
     6     2     7 1   
     7     2    39 1   
     8     3     4 1   
     9     3    40 1   
    10     3    41 1   
    11     4     5 1   
    12     5     6 1   
    13     5    42 1   
    14     5    43 1   
    15     6     7 1   
    16     6    44 1   
    17     6    45 1   
    18     7     8 1   
    19     8     9 1   
    20     8    46 1   
    21     8    47 1   
    22     9    10 1   
    23     9    22 1   
    24     9    48 1   
    25    10    11 1   
    26    10    49 1   
    27    10    50 1   
    28    11    12 1   
    29    11    20 1   
    30    12    13 2   
    31    12    14 2   
    32    12    15 1   
    33    15    16 2   
    34    15    19 1   
    35    16    17 1   
    36    16    51 1   
    37    17    18 2   
    38    17    52 1   
    39    18    19 1   
    40    18    53 1   
    41    20    21 1   
    42    20    54 1   
    43    20    55 1   
    44    21    22 1   
    45    21    56 1   
    46    21    57 1   
    47    22    23 1   
    48    23    24 ar  
    49    23    26 ar  
    50    24    25 ar  
    51    24    58 1   
    52    25    28 ar  
    53    25    59 1   
    54    26    27 ar  
    55    26    60 1   
    56    27    28 ar  
    57    27    61 1   
    58    28    29 1   
    59    29    30 1   
    60    29    34 1   
    61    29    35 1   
    62    30    31 1   
    63    30    32 1   
    64    30    33 1   
    65    34    62 1   
    66    34    63 1   
    67    34    64 1   
    68    35    65 1   
@<TRIPOS>SUBSTRUCTURE
     1 1YY         1 TEMP              0 ****  ****    0 ROOT
