@<TRIPOS>MOLECULE
molecule
   65    68     1     0     0
SMALL
bcc


@<TRIPOS>ATOM
      1 C22          0.0000     0.0000     0.0000 c3         1 1YY      -0.129100
      2 C21          1.5290     0.0000     0.0000 c3         1 1YY       0.128500
      3 C20          2.0420     0.0000     1.4430 c3         1 1YY       0.144400
      4 O4           1.6230    -1.2050     2.0910 os         1 1YY      -0.425600
      5 C19          2.0840    -2.3950     1.4470 c3         1 1YY       0.140400
      6 C18          1.5730    -2.4190     0.0040 c3         1 1YY       0.115800
      7 N3           2.0200    -1.2030    -0.6900 n3         1 1YY      -0.721600
      8 C5           1.5970    -1.2130    -2.0960 c3         1 1YY       0.120800
      9 C3           2.8320    -1.2180    -2.9990 c3         1 1YY       0.163500
     10 C2           3.2410    -2.6650    -3.2970 c3         1 1YY       0.243800
     11 N1           2.1820    -3.2930    -4.1040 n3         1 1YY      -0.820500
     12 S1           1.5290    -4.7490    -3.6610 sy         1 1YY       1.444200
     13 O1           1.2370    -5.4410    -4.8680 o          1 1YY      -0.626300
     14 O2           2.3730    -5.2760    -2.6480 o          1 1YY      -0.626300
     15 C6          -0.0210    -4.4130    -2.8930 cc         1 1YY      -0.276600
     16 C7          -1.0560    -3.8090    -3.4810 cd         1 1YY      -0.033000
     17 C8          -2.1730    -3.6540    -2.6770 cd         1 1YY      -0.185000
     18 C9          -2.0450    -4.1320    -1.4390 cc         1 1YY      -0.045100
     19 S2          -0.4430    -4.8300    -1.2380 ss         1 1YY      -0.029800
     20 C1           1.7190    -2.5930    -5.3110 c3         1 1YY       0.241800
     21 C4           1.3710    -1.1490    -4.9340 c3         1 1YY       0.136800
     22 N2           2.5210    -0.5320    -4.2610 nh         1 1YY      -0.586000
     23 C10          2.3030     0.8320    -4.0460 ca         1 1YY       0.118600
     24 C15          1.0940     1.4090    -4.4150 ca         1 1YY      -0.172500
     25 C14          0.8820     2.7570    -4.2020 ca         1 1YY      -0.070000
     26 C11          3.2920     1.6120    -3.4600 ca         1 1YY      -0.172500
     27 C12          3.0730     2.9590    -3.2510 ca         1 1YY      -0.070000
     28 C13          1.8710     3.5320    -3.6240 ca         1 1YY      -0.130300
     29 C16          1.6360     5.0020    -3.3930 c3         1 1YY       0.168100
     30 C23          2.0990     5.7920    -4.6200 c3         1 1YY       0.594900
     31 F2           1.3780     5.3740    -5.7430 f          1 1YY      -0.223300
     32 F3           1.8810     7.1570    -4.4060 f          1 1YY      -0.223300
     33 F1           3.4640     5.5650    -4.8310 f          1 1YY      -0.223300
     34 C17          0.1440     5.2500    -3.1630 c3         1 1YY      -0.128100
     35 O3           2.3720     5.4290    -2.2460 oh         1 1YY      -0.577800
     36 H1          -0.3610    -0.3480    -0.9600 hc         1 1YY       0.042700
     37 H2          -0.3610    -0.6570     0.7820 hc         1 1YY       0.042700
     38 H3          -0.3610     1.0060     0.1780 hc         1 1YY       0.042700
     39 H4           1.8950     0.8820    -0.5110 h1         1 1YY       0.071700
     40 H5           3.1240     0.0510     1.4410 h1         1 1YY       0.055200
     41 H6           1.6350     0.8540     1.9700 h1         1 1YY       0.055200
     42 H7           1.7080    -3.2610     1.9770 h1         1 1YY       0.055200
     43 H8           3.1680    -2.4080     1.4450 h1         1 1YY       0.055200
     44 H9           1.9680    -3.2900    -0.5050 h1         1 1YY       0.047700
     45 H10          0.4900    -2.4550     0.0060 h1         1 1YY       0.047700
     46 H12          1.0050    -2.0990    -2.2890 h1         1 1YY       0.047200
     47 H13          1.0040    -0.3300    -2.3010 h1         1 1YY       0.047200
     48 H14          3.6500    -0.7080    -2.5050 h1         1 1YY       0.095700
     49 H15          3.3590    -3.2080    -2.3680 h1         1 1YY       0.074700
     50 H16          4.1720    -2.6730    -3.8510 h1         1 1YY       0.074700
     51 H17         -1.0250    -3.4670    -4.5080 ha         1 1YY       0.149000
     52 H18         -3.0810    -3.1790    -3.0280 ha         1 1YY       0.154000
     53 H19         -2.8120    -4.0990    -0.6750 h4         1 1YY       0.177000
     54 H20          2.5070    -2.5940    -6.0560 h1         1 1YY       0.064700
     55 H21          0.8390    -3.0880    -5.7040 h1         1 1YY       0.064700
     56 H22          0.5180    -1.1470    -4.2650 h1         1 1YY       0.049200
     57 H23          1.1350    -0.5890    -5.8300 h1         1 1YY       0.049200
     58 H24          0.3190     0.8030    -4.8670 ha         1 1YY       0.142000
     59 H25         -0.0600     3.2090    -4.4910 ha         1 1YY       0.145500
     60 H26          4.2330     1.1640    -3.1680 ha         1 1YY       0.142000
     61 H27          3.8450     3.5680    -2.7960 ha         1 1YY       0.145500
     62 H28         -0.3960     5.0900    -4.0880 hc         1 1YY       0.059033
     63 H29         -0.0060     6.2700    -2.8280 hc         1 1YY       0.059033
     64 H30         -0.2240     4.5650    -2.4080 hc         1 1YY       0.059033
     65 H31          1.9750     6.2050    -1.8880 ho         1 1YY       0.418000
@<TRIPOS>BOND
     1     5     4 1
     2     5     6 1
     3     4     3 1
     4     6     7 1
     5    14    12 2
     6     3     2 1
     7     1     2 1
     8     2     7 1
     9     7     8 1
    10    16    15 2
    11    16    17 1
    12    12    13 2
    13    12    15 1
    14    12    11 1
    15    15    19 1
    16    17    18 2
    17     8     9 1
    18    11    10 1
    19    11    20 1
    20    10     9 1
    21     9    22 1
    22    18    19 1
    23    20    21 1
    24    22    21 1
    25    22    23 1
    26    26    23 ar
    27    26    27 ar
    28    23    24 ar
    29    27    28 ar
    30    24    25 ar
    31    28    25 ar
    32    28    29 1
    33    35    29 1
    34    29    34 1
    35    29    30 1
    36    33    30 1
    37    30    31 1
    38    30    32 1
    39     1    36 1
    40     1    37 1
    41     1    38 1
    42     2    39 1
    43     3    40 1
    44     3    41 1
    45     5    42 1
    46     5    43 1
    47     6    44 1
    48     6    45 1
    49     8    46 1
    50     8    47 1
    51     9    48 1
    52    10    49 1
    53    10    50 1
    54    16    51 1
    55    17    52 1
    56    18    53 1
    57    20    54 1
    58    20    55 1
    59    21    56 1
    60    21    57 1
    61    24    58 1
    62    25    59 1
    63    26    60 1
    64    27    61 1
    65    34    62 1
    66    34    63 1
    67    34    64 1
    68    35    65 1
@<TRIPOS>SUBSTRUCTURE
     1 1YY         1 TEMP              0 ****  ****    0 ROOT
