@<TRIPOS>MOLECULE
molecule
   44    46     1     0     0
SMALL
bcc


@<TRIPOS>ATOM
      1 N1           0.0000     0.0000     0.0000 na         1 1YZ       0.336300
      2 N2           1.2850     0.0000     0.0000 nc         1 1YZ      -0.459800
      3 C1           1.7420     0.0000     1.2390 cd         1 1YZ       0.163800
      4 C2           0.6130    -0.0010     2.1000 cd         1 1YZ      -0.089700
      5 C3          -0.4690    -0.0000     1.2780 cc         1 1YZ      -0.130300
      6 N3           0.6150    -0.0010     3.5040 ns         1 1YZ      -0.408100
      7 C4          -0.5510    -0.0010     4.1780 c          1 1YZ       0.596100
      8 N4          -0.5500    -0.0000     5.5260 nz         1 1YZ      -0.668400
      9 O1          -1.6060    -0.0010     3.5720 o          1 1YZ      -0.485100
     10 C5           3.1570    -0.0000     1.6500 c          1 1YZ       0.476600
     11 N5           4.1300     0.0000     0.7170 nz         1 1YZ      -0.673400
     12 O2           3.4470    -0.0010     2.8310 o          1 1YZ      -0.469100
     13 C6          -0.8010     0.0060    -1.1460 ca         1 1YZ      -0.105200
     14 C7          -1.8470     0.8950    -1.2590 ca         1 1YZ      -0.052000
     15 C8          -2.6470     0.9110    -2.3980 ca         1 1YZ      -0.151000
     16 C9          -2.4180     0.0540    -3.4300 ca         1 1YZ      -0.025000
     17 C10         -0.5400    -0.8950    -2.2010 ca         1 1YZ       0.038000
     18 C11         -1.3600    -0.8670    -3.3560 ca         1 1YZ      -0.075000
     19 C12         -1.1010    -1.7640    -4.4080 ca         1 1YZ      -0.044000
     20 C13         -0.0690    -2.6450    -4.3060 ca         1 1YZ      -0.195000
     21 C14          0.7410    -2.6720    -3.1670 ca         1 1YZ       0.197100
     22 C15          0.5200    -1.8110    -2.1290 ca         1 1YZ      -0.218000
     23 O3           1.7650    -3.5630    -3.0940 os         1 1YZ      -0.337900
     24 C16          1.9500    -4.4330    -4.2120 c3         1 1YZ       0.127400
     25 C17          3.1400    -5.3570    -3.9490 c3         1 1YZ      -0.091100
     26 H1          -1.5090    -0.0010     1.5820 h4         1 1YZ       0.242000
     27 H2           1.4810     0.0490     4.0030 hn         1 1YZ       0.362500
     28 H4          -1.4930    -0.0020     5.8610 hn         1 1YZ       0.491800
     29 H3          -0.0760    -0.8170     5.8600 hn         1 1YZ       0.491800
     30 H5           3.8380     0.5460    -0.0700 hn         1 1YZ       0.493133
     31 H6           4.9640     0.3940     1.1050 hn         1 1YZ       0.493133
     32 H7          -2.0500     1.5870    -0.4510 ha         1 1YZ       0.141000
     33 H8          -3.4650     1.6190    -2.4650 ha         1 1YZ       0.165000
     34 H9          -3.0520     0.0820    -4.3080 ha         1 1YZ       0.164000
     35 H10         -1.7200    -1.7530    -5.2960 ha         1 1YZ       0.162000
     36 H11          0.1250    -3.3370    -5.1170 ha         1 1YZ       0.162000
     37 H12          1.1550    -1.8430    -1.2520 ha         1 1YZ       0.128000
     38 H14          2.1410    -3.8420    -5.1010 h1         1 1YZ       0.047700
     39 H13          1.0560    -5.0270    -4.3590 h1         1 1YZ       0.047700
     40 H16          3.2780    -6.0180    -4.7960 hc         1 1YZ       0.055700
     41 H17          2.9490    -5.9460    -3.0590 hc         1 1YZ       0.055700
     42 H15          4.0340    -4.7630    -3.8040 hc         1 1YZ       0.055700
     43 H43         -0.0930     0.8250     5.8590 hn         1 1YZ       0.491800
     44 H53          4.3300    -0.9420     0.4440 hn         1 1YZ       0.493133
@<TRIPOS>BOND
     1    15    16 ar
     2    15    14 ar
     3    16    18 ar
     4    14    13 ar
     5    18    19 ar
     6    18    17 ar
     7    19    20 ar
     8    13    17 ar
     9    13     1 1
    10    17    22 ar
    11     1     2 1
    12     1     5 1
    13    20    21 ar
    14     2     3 2
    15     5     4 2
    16    22    21 ar
    17    21    23 1
    18     3     4 1
    19     3    10 1
    20     4     6 1
    21    11    10 1
    22     9     7 2
    23    10    12 2
    24    23    24 1
    25     6     7 1
    26     7     8 1
    27    24    25 1
    28     5    26 1
    29     6    27 1
    30     8    28 1
    31     8    29 1
    32    11    30 1
    33    11    31 1
    34    14    32 1
    35    15    33 1
    36    16    34 1
    37    19    35 1
    38    20    36 1
    39    22    37 1
    40    24    38 1
    41    24    39 1
    42    25    40 1
    43    25    41 1
    44    25    42 1
    45    43     8 1
    46    44    11 1
@<TRIPOS>SUBSTRUCTURE
     1 1YZ         1 TEMP              0 ****  ****    0 ROOT
