@<TRIPOS>MOLECULE
1YZ
   44    46     1     0     0
SMALL
bcc


@<TRIPOS>ATOM
      1 N1           0.0000     0.0000     0.0000 na         1 1YZ       0.928300
      2 N2           1.2850     0.0000     0.0000 nc         1 1YZ      -0.614800
      3 C1           1.7420     0.0000     1.2390 cd         1 1YZ       0.136800
      4 C2           0.6130    -0.0010     2.1000 cd         1 1YZ      -0.218700
      5 C3          -0.4690    -0.0000     1.2780 cc         1 1YZ      -0.336300
      6 N3           0.6150    -0.0010     3.5040 ns         1 1YZ       0.102900
      7 C4          -0.5510    -0.0010     4.1780 c          1 1YZ       0.273100
      8 N4          -0.5500    -0.0000     5.5260 nz         1 1YZ       0.225600
      9 O1          -1.6060    -0.0010     3.5720 o          1 1YZ      -0.522100
     10 C5           3.1570    -0.0000     1.6500 c          1 1YZ       0.326600
     11 N5           4.1300     0.0000     0.7170 nz         1 1YZ       0.214600
     12 O2           3.4470    -0.0010     2.8310 o          1 1YZ      -0.503100
     13 C6          -0.8010     0.0060    -1.1460 ca         1 1YZ      -0.345200
     14 C7          -1.8470     0.8950    -1.2590 ca         1 1YZ       0.012000
     15 C8          -2.6470     0.9110    -2.3980 ca         1 1YZ      -0.138000
     16 C9          -2.4180     0.0540    -3.4300 ca         1 1YZ       0.038000
     17 C10         -0.5400    -0.8950    -2.2010 ca         1 1YZ       0.068000
     18 C11         -1.3600    -0.8670    -3.3560 ca         1 1YZ      -0.091000
     19 C12         -1.1010    -1.7640    -4.4080 ca         1 1YZ       0.004000
     20 C13         -0.0690    -2.6450    -4.3060 ca         1 1YZ      -0.186000
     21 C14          0.7410    -2.6720    -3.1670 ca         1 1YZ       0.225100
     22 C15          0.5200    -1.8110    -2.1290 ca         1 1YZ      -0.232000
     23 O3           1.7650    -3.5630    -3.0940 os         1 1YZ      -0.317900
     24 C16          1.9500    -4.4330    -4.2120 c3         1 1YZ       0.200400
     25 C17          3.1400    -5.3570    -3.9490 c3         1 1YZ       0.004900
     26 H1          -1.5090    -0.0010     1.5820 h4         1 1YZ       0.219000
     27 H2           1.4810     0.0490     4.0030 hn         1 1YZ       0.191500
     28 H4          -1.4930    -0.0020     5.8610 hn         1 1YZ       0.250800
     29 H3          -0.0760    -0.8170     5.8600 hn         1 1YZ       0.250800
     30 H5           3.8380     0.5460    -0.0700 hn         1 1YZ       0.256133
     31 H6           4.9640     0.3940     1.1050 hn         1 1YZ       0.256133
     32 H7          -2.0500     1.5870    -0.4510 ha         1 1YZ       0.106000
     33 H8          -3.4650     1.6190    -2.4650 ha         1 1YZ       0.133000
     34 H9          -3.0520     0.0820    -4.3080 ha         1 1YZ       0.126000
     35 H10         -1.7200    -1.7530    -5.2960 ha         1 1YZ       0.125000
     36 H11          0.1250    -3.3370    -5.1170 ha         1 1YZ       0.142000
     37 H12          1.1550    -1.8430    -1.2520 ha         1 1YZ       0.108000
     38 H14          2.1410    -3.8420    -5.1010 h1         1 1YZ       0.010700
     39 H13          1.0560    -5.0270    -4.3590 h1         1 1YZ       0.010700
     40 H16          3.2780    -6.0180    -4.7960 hc         1 1YZ       0.017367
     41 H17          2.9490    -5.9460    -3.0590 hc         1 1YZ       0.017367
     42 H15          4.0340    -4.7630    -3.8040 hc         1 1YZ       0.017367
     43 H43         -0.0930     0.8250     5.8590 hn         1 1YZ       0.250800
     44 H53          4.3300    -0.9420     0.4440 hn         1 1YZ       0.256133
@<TRIPOS>BOND
     1     1     2 1   
     2     1     5 1   
     3     1    13 1   
     4     2     3 2   
     5     3     4 1   
     6     3    10 1   
     7     4     5 2   
     8     4     6 1   
     9     5    26 1   
    10     6     7 1   
    11     6    27 1   
    12     7     8 1   
    13     7     9 2   
    14     8    28 1   
    15     8    29 1   
    16     8    43 1   
    17    10    11 1   
    18    10    12 2   
    19    11    30 1   
    20    11    31 1   
    21    11    44 1   
    22    13    14 ar  
    23    13    17 ar  
    24    14    15 ar  
    25    14    32 1   
    26    15    16 ar  
    27    15    33 1   
    28    16    18 ar  
    29    16    34 1   
    30    17    18 ar  
    31    17    22 ar  
    32    18    19 ar  
    33    19    20 ar  
    34    19    35 1   
    35    20    21 ar  
    36    20    36 1   
    37    21    22 ar  
    38    21    23 1   
    39    22    37 1   
    40    23    24 1   
    41    24    25 1   
    42    24    38 1   
    43    24    39 1   
    44    25    40 1   
    45    25    41 1   
    46    25    42 1   
@<TRIPOS>SUBSTRUCTURE
     1 1YZ         1 TEMP              0 ****  ****    0 ROOT
