@<TRIPOS>MOLECULE
1YZ
   44    46     1     0     0
SMALL
bcc


@<TRIPOS>ATOM
      1 N1           0.4400     0.1560    -0.2290 na         1 1YZ       0.303300
      2 N2           1.4920     0.9120    -0.0200 nc         1 1YZ      -0.433800
      3 C1           1.8340     0.7860     1.3190 cd         1 1YZ       0.137800
      4 C2           0.8950    -0.1280     1.9630 cd         1 1YZ      -0.073700
      5 C3           0.0110    -0.5180     0.9290 cc         1 1YZ      -0.116300
      6 N3           0.9200    -0.4860     3.3100 ns         1 1YZ      -0.397100
      7 C4          -0.0520    -1.3040     3.8370 c          1 1YZ       0.645100
      8 N4          -0.0020    -1.5940     5.3360 nz         1 1YZ      -0.742400
      9 O1          -0.9800    -1.8640     3.2490 o          1 1YZ      -0.447100
     10 C5           2.9370     1.4440     1.9610 c          1 1YZ       0.512600
     11 N5           3.7970     2.3230     1.0900 nz         1 1YZ      -0.738400
     12 O2           3.2640     1.3690     3.1430 o          1 1YZ      -0.469100
     13 C6          -0.2530     0.0730    -1.4940 ca         1 1YZ      -0.109200
     14 C7          -0.7270     1.2510    -2.0700 ca         1 1YZ      -0.050000
     15 C8          -1.4470     1.1990    -3.2730 ca         1 1YZ      -0.154000
     16 C9          -1.6820    -0.0120    -3.8900 ca         1 1YZ      -0.028000
     17 C10         -0.4440    -1.2010    -2.1220 ca         1 1YZ       0.042000
     18 C11         -1.1910    -1.2160    -3.3330 ca         1 1YZ      -0.073000
     19 C12         -1.4300    -2.4620    -3.9900 ca         1 1YZ      -0.063000
     20 C13         -0.9390    -3.6320    -3.4890 ca         1 1YZ      -0.130000
     21 C14         -0.1640    -3.6060    -2.2840 ca         1 1YZ       0.197100
     22 C15          0.0730    -2.4200    -1.6100 ca         1 1YZ      -0.279000
     23 O3           0.2800    -4.8400    -1.8950 os         1 1YZ      -0.303900
     24 C16          1.1810    -4.8910    -0.7780 c3         1 1YZ       0.132400
     25 C17          1.5850    -6.3400    -0.6450 c3         1 1YZ      -0.106100
     26 H1          -0.8550    -1.1910     0.9290 h4         1 1YZ       0.248000
     27 H2           1.6410    -0.0750     3.8730 hn         1 1YZ       0.376500
     28 H4          -0.1130    -0.7350     5.8850 hn         1 1YZ       0.486800
     29 H3          -0.7920    -2.2280     5.5460 hn         1 1YZ       0.486800
     30 H5           4.5590     2.7350     1.6480 hn         1 1YZ       0.484800
     31 H6           4.1990     1.7680     0.3230 hn         1 1YZ       0.484800
     32 H7          -0.5600     2.2330    -1.5960 ha         1 1YZ       0.149000
     33 H8          -1.8230     2.1370    -3.7130 ha         1 1YZ       0.170000
     34 H9          -2.2560    -0.0550    -4.8320 ha         1 1YZ       0.168000
     35 H10         -2.0210    -2.4570    -4.9220 ha         1 1YZ       0.166000
     36 H11         -1.1100    -4.6030    -3.9820 ha         1 1YZ       0.182000
     37 H12          0.6760    -2.4220    -0.6940 ha         1 1YZ       0.123000
     38 H14          0.6450    -4.5280     0.1380 h1         1 1YZ       0.029200
     39 H13          2.0660    -4.2340    -0.9840 h1         1 1YZ       0.029200
     40 H16          2.2890    -6.4460     0.2140 hc         1 1YZ       0.063367
     41 H17          2.0900    -6.6920    -1.5770 hc         1 1YZ       0.063367
     42 H15          0.6890    -6.9840    -0.4690 hc         1 1YZ       0.063367
     43 H43          0.8750    -2.0570     5.5990 hn         1 1YZ       0.486800
     44 H53          3.2280     3.0760     0.6830 hn         1 1YZ       0.484800
@<TRIPOS>BOND
     1     1     2 1   
     2     1     5 1   
     3     1    13 1   
     4     2     3 2   
     5     3     4 1   
     6     3    10 1   
     7     4     5 2   
     8     4     6 1   
     9     5    26 1   
    10     6     7 1   
    11     6    27 1   
    12     7     8 1   
    13     7     9 2   
    14     8    28 1   
    15     8    29 1   
    16     8    43 1   
    17    10    11 1   
    18    10    12 2   
    19    11    30 1   
    20    11    31 1   
    21    11    44 1   
    22    13    14 ar  
    23    13    17 ar  
    24    14    15 ar  
    25    14    32 1   
    26    15    16 ar  
    27    15    33 1   
    28    16    18 ar  
    29    16    34 1   
    30    17    18 ar  
    31    17    22 ar  
    32    18    19 ar  
    33    19    20 ar  
    34    19    35 1   
    35    20    21 ar  
    36    20    36 1   
    37    21    22 ar  
    38    21    23 1   
    39    22    37 1   
    40    23    24 1   
    41    24    25 1   
    42    24    38 1   
    43    24    39 1   
    44    25    40 1   
    45    25    41 1   
    46    25    42 1   
@<TRIPOS>SUBSTRUCTURE
     1 1YZ         1 TEMP              0 ****  ****    0 ROOT
