@<TRIPOS>MOLECULE
molecule
   22    23     1     0     0
SMALL
bcc


@<TRIPOS>ATOM
      1 C1           0.0000     0.0000     0.0000 c3         1 1Z6      -0.111400
      2 C2           1.5070     0.0000     0.0000 cc         1 1Z6       0.357600
      3 N4           3.6100    -0.0030    -0.6400 na         1 1Z6      -0.041600
      4 C6           3.6290    -0.0000     0.7090 cc         1 1Z6      -0.099300
      5 C7           2.3340     0.0000     1.1390 cd         1 1Z6      -0.266300
      6 C8           1.8800    -0.0000     2.5530 ca         1 1Z6      -0.009000
      7 C10          0.5140     0.9220     4.2980 ca         1 1Z6      -0.166000
      8 C11          1.0320    -0.0010     5.1890 ca         1 1Z6       0.126900
      9 C13          1.9790    -0.9210     4.7680 ca         1 1Z6      -0.166000
     10 C14          2.4040    -0.9240     3.4540 ca         1 1Z6      -0.099000
     11 N3           2.2740    -0.0050    -1.0590 nd         1 1Z6      -0.512800
     12 C9           0.9340     0.9260     2.9830 ca         1 1Z6      -0.099000
     13 F12          0.6190    -0.0020     6.4760 f          1 1Z6      -0.143900
     14 H1          -0.3610     0.9750     0.3050 hc         1 1Z6       0.052367
     15 H2          -0.3610    -0.7520     0.6910 hc         1 1Z6       0.052367
     16 H3          -0.3610    -0.2230    -0.9970 hc         1 1Z6       0.052367
     17 H4           4.4130    -0.0040    -1.2380 hn         1 1Z6       0.331700
     18 H5           4.5120     0.0010     1.3360 h4         1 1Z6       0.173000
     19 H6          -0.2240     1.6420     4.6320 ha         1 1Z6       0.144500
     20 H7           2.3840    -1.6410     5.4690 ha         1 1Z6       0.144500
     21 H8           3.1440    -1.6440     3.1250 ha         1 1Z6       0.139000
     22 H9           0.5270     1.6500     2.2860 ha         1 1Z6       0.139000
@<TRIPOS>BOND
     1     7    12 ar  
     2     7     8 ar  
     3    12     6 ar  
     4     4     3 1   
     5     4     5 2   
     6    13     8 1   
     7     8     9 ar  
     8     3    11 1   
     9     6     5 1   
    10     6    10 ar  
    11     5     2 1   
    12    11     2 2   
    13     2     1 1   
    14     9    10 ar  
    15     1    14 1   
    16     1    15 1   
    17     1    16 1   
    18     3    17 1   
    19     4    18 1   
    20     7    19 1   
    21     9    20 1   
    22    10    21 1   
    23    12    22 1   
@<TRIPOS>SUBSTRUCTURE
     1 1Z6         1 TEMP              0 ****  ****    0 ROOT
