@<TRIPOS>MOLECULE
1Z6
   22    23     1     0     0
SMALL
bcc


@<TRIPOS>ATOM
      1 C1           0.0240     0.2010     0.0270 c3         1 1Z6      -0.126400
      2 C2           1.4870     0.0260    -0.0270 cc         1 1Z6       0.328600
      3 N4           3.4890    -0.1960    -0.8340 na         1 1Z6      -0.014600
      4 C6           3.6680    -0.2180     0.5460 cd         1 1Z6      -0.133300
      5 C7           2.3860    -0.0800     1.1160 cc         1 1Z6      -0.211300
      6 C8           2.0710    -0.0440     2.5190 ca         1 1Z6      -0.003000
      7 C10          2.6840     0.5910     4.7850 ca         1 1Z6      -0.163000
      8 C11          1.4880     0.0230     5.2630 ca         1 1Z6       0.119900
      9 C13          0.5870    -0.5810     4.3670 ca         1 1Z6      -0.163000
     10 C14          0.8840    -0.6110     3.0100 ca         1 1Z6      -0.103000
     11 N3           2.2120    -0.0510    -1.1830 nd         1 1Z6      -0.517800
     12 C9           2.9640     0.5530     3.4250 ca         1 1Z6      -0.103000
     13 F12          1.2060     0.0570     6.5870 f          1 1Z6      -0.141900
     14 H1          -0.2520     0.7660     0.9530 hc         1 1Z6       0.053033
     15 H2          -0.4780    -0.7990     0.0530 hc         1 1Z6       0.053033
     16 H3          -0.3560     0.7620    -0.8620 hc         1 1Z6       0.053033
     17 H4           4.1900    -0.2800    -1.5320 hn         1 1Z6       0.323700
     18 H5           4.6460    -0.3340     1.0120 h4         1 1Z6       0.178000
     19 H6           3.3830     1.0610     5.4910 ha         1 1Z6       0.148000
     20 H7          -0.3430    -1.0260     4.7490 ha         1 1Z6       0.148000
     21 H8           0.1830    -1.0930     2.3100 ha         1 1Z6       0.139000
     22 H9           3.8960     1.0010     3.0490 ha         1 1Z6       0.139000
@<TRIPOS>BOND
     1     1     2 1   
     2     1    14 1   
     3     1    15 1   
     4     1    16 1   
     5     2     5 1   
     6     2    11 2   
     7     3     4 1   
     8     3    11 1   
     9     3    17 1   
    10     4     5 2   
    11     4    18 1   
    12     5     6 1   
    13     6    10 ar  
    14     6    12 ar  
    15     7     8 ar  
    16     7    12 ar  
    17     7    19 1   
    18     8     9 ar  
    19     8    13 1   
    20     9    10 ar  
    21     9    20 1   
    22    10    21 1   
    23    12    22 1   
@<TRIPOS>SUBSTRUCTURE
     1 1Z6         1 TEMP              0 ****  ****    0 ROOT
