@<TRIPOS>MOLECULE
1Z6
   22    23     1     0     0
SMALL
bcc


@<TRIPOS>ATOM
      1 C1          0.0400    0.2430   -0.0870 c3        1 1Z6     -0.126400
      2 C2          1.5050    0.0890   -0.0170 cc        1 1Z6      0.328600
      3 N4          3.5690   -0.1200   -0.6500 na        1 1Z6     -0.014600
      4 C6          3.6270   -0.1730    0.7390 cd        1 1Z6     -0.133300
      5 C7          2.3010   -0.0370    1.1980 cc        1 1Z6     -0.211300
      6 C8          1.8640   -0.0370    2.5680 ca        1 1Z6     -0.004000
      7 C10         0.3780    0.7700    4.3140 ca        1 1Z6     -0.163000
      8 C11         1.0410   -0.0430    5.2510 ca        1 1Z6      0.119900
      9 C13         2.1190   -0.8520    4.8450 ca        1 1Z6     -0.163000
     10 C14         2.5190   -0.8420    3.5150 ca        1 1Z6     -0.103000
     11 N3          2.3260    0.0320   -1.1070 nd        1 1Z6     -0.517800
     12 C9          0.7930    0.7670    2.9870 ca        1 1Z6     -0.103000
     13 F12         0.6430   -0.0470    6.5460 f         1 1Z6     -0.141900
     14 H1         -0.4340   -0.2680    0.7890 hc        1 1Z6      0.053033
     15 H2         -0.3750   -0.1980   -1.0270 hc        1 1Z6      0.053033
     16 H3         -0.2310    1.3290   -0.0590 hc        1 1Z6      0.053033
     17 H4          4.3300   -0.1770   -1.2860 hn        1 1Z6      0.323700
     18 H5          4.5620   -0.2910    1.2860 h4        1 1Z6      0.178000
     19 H6         -0.4600    1.4020    4.6390 ha        1 1Z6      0.148000
     20 H7          2.6320   -1.4850    5.5830 ha        1 1Z6      0.148000
     21 H8          3.3590   -1.4780    3.1960 ha        1 1Z6      0.139000
     22 H9          0.2800    1.4120    2.2560 ha        1 1Z6      0.139000
@<TRIPOS>BOND
     1    1    2 1   
     2    1   14 1   
     3    1   15 1   
     4    1   16 1   
     5    2    5 1   
     6    2   11 2   
     7    3    4 1   
     8    3   11 1   
     9    3   17 1   
    10    4    5 2   
    11    4   18 1   
    12    5    6 1   
    13    6   10 ar  
    14    6   12 ar  
    15    7    8 ar  
    16    7   12 ar  
    17    7   19 1   
    18    8    9 ar  
    19    8   13 1   
    20    9   10 ar  
    21    9   20 1   
    22   10   21 1   
    23   12   22 1   
@<TRIPOS>SUBSTRUCTURE
     1 1Z6         1 TEMP              0 ****  ****    0 ROOT
