@<TRIPOS>MOLECULE
molecule
   22    23     1     0     0
SMALL
bcc


@<TRIPOS>ATOM
      1 C2           0.0000     0.0000     0.0000 c3         1 1Z8       0.617600
      2 C5           1.5070     0.0000     0.0000 cc         1 1Z8       0.261600
      3 C10          2.3340     0.0000     1.1410 cc         1 1Z8      -0.217300
      4 C11          1.8790    -0.0020     2.5540 ca         1 1Z8      -0.017000
      5 C12          0.9230     0.9160     2.9810 ca         1 1Z8      -0.118000
      6 C13          0.5030     0.9110     4.2970 ca         1 1Z8      -0.126000
      7 C14          1.0300    -0.0050     5.1880 ca         1 1Z8      -0.125000
      8 C15          1.9790    -0.9190     4.7700 ca         1 1Z8      -0.126000
      9 C16          2.4020    -0.9260     3.4560 ca         1 1Z8      -0.118000
     10 F1          -0.4670     1.1970     0.5520 f          1 1Z8      -0.212633
     11 F3          -0.4660    -0.1200    -1.3140 f          1 1Z8      -0.212633
     12 F4          -0.4670    -1.0780     0.7610 f          1 1Z8      -0.212633
     13 N6           2.2740    -0.0030    -1.0570 nd         1 1Z8      -0.456800
     14 N7           3.6100    -0.0020    -0.6380 na         1 1Z8      -0.029600
     15 C9           3.6280     0.0010     0.7110 cd         1 1Z8      -0.100300
     16 H18          0.5090     1.6340     2.2830 ha         1 1Z8       0.138500
     17 H19         -0.2410     1.6240     4.6300 ha         1 1Z8       0.131500
     18 H20          0.7000    -0.0050     6.2200 ha         1 1Z8       0.129000
     19 H21          2.3870    -1.6360     5.4720 ha         1 1Z8       0.131500
     20 H22          3.1450    -1.6420     3.1290 ha         1 1Z8       0.138500
     21 H8           4.4120    -0.0030    -1.2360 hn         1 1Z8       0.339700
     22 H17          4.5110     0.0010     1.3390 h4         1 1Z8       0.183000
@<TRIPOS>BOND
     1    12     1 1
     2     6     5 ar
     3     6     7 ar
     4     5     4 ar
     5    10     1 1
     6     7     8 ar
     7     4     3 1
     8     4     9 ar
     9     3    15 2
    10     3     2 1
    11    15    14 1
    12    14    13 1
    13     2     1 1
    14     2    13 2
    15     1    11 1
    16     8     9 ar
    17     5    16 1
    18     6    17 1
    19     7    18 1
    20     8    19 1
    21     9    20 1
    22    14    21 1
    23    15    22 1
@<TRIPOS>SUBSTRUCTURE
     1 1Z8         1 TEMP              0 ****  ****    0 ROOT
