@<TRIPOS>MOLECULE
1Z8
   22    23     1     0     0
SMALL
bcc


@<TRIPOS>ATOM
      1 C2          -0.0390    -0.0700    -0.0010 c3         1 1Z8       0.631600
      2 C5           1.4750    -0.0060    -0.0250 cc         1 1Z8       0.220600
      3 C10          2.3910     0.0110     1.1030 cc         1 1Z8      -0.137300
      4 C11          2.1360    -0.0200     2.5220 ca         1 1Z8      -0.019000
      5 C12          3.0130    -0.7190     3.3680 ca         1 1Z8      -0.112500
      6 C13          2.8010    -0.7340     4.7440 ca         1 1Z8      -0.128000
      7 C14          1.7140    -0.0530     5.2930 ca         1 1Z8      -0.122000
      8 C15          0.8380     0.6420     4.4600 ca         1 1Z8      -0.128000
      9 C16          1.0450     0.6590     3.0830 ca         1 1Z8      -0.112500
     10 F1          -0.6260    -0.4880    -1.1690 f          1 1Z8      -0.230300
     11 F3          -0.6360     1.1420     0.2570 f          1 1Z8      -0.230300
     12 F4          -0.5580    -0.9150     0.9470 f          1 1Z8      -0.230300
     13 N6           2.1760     0.0530    -1.1990 nd         1 1Z8      -0.457800
     14 N7           3.4590     0.0990    -0.8750 na         1 1Z8       0.003400
     15 C9           3.6670     0.0750     0.5050 cd         1 1Z8      -0.145300
     16 H18          3.8680    -1.2610     2.9370 ha         1 1Z8       0.136500
     17 H19          3.4910    -1.2880     5.3970 ha         1 1Z8       0.135000
     18 H20          1.5480    -0.0670     6.3810 ha         1 1Z8       0.134000
     19 H21         -0.0220     1.1770     4.8890 ha         1 1Z8       0.135000
     20 H22          0.3450     1.2010     2.4270 ha         1 1Z8       0.136500
     21 H8           4.1510     0.1480    -1.5870 hn         1 1Z8       0.332700
     22 H17          4.6600     0.1110     0.9520 h4         1 1Z8       0.189000
@<TRIPOS>BOND
     1     1     2 1   
     2     1    10 1   
     3     1    11 1   
     4     1    12 1   
     5     2     3 1   
     6     2    13 2   
     7     3     4 1   
     8     3    15 2   
     9     4     5 ar  
    10     4     9 ar  
    11     5     6 ar  
    12     5    16 1   
    13     6     7 ar  
    14     6    17 1   
    15     7     8 ar  
    16     7    18 1   
    17     8     9 ar  
    18     8    19 1   
    19     9    20 1   
    20    13    14 1   
    21    14    15 1   
    22    14    21 1   
    23    15    22 1   
@<TRIPOS>SUBSTRUCTURE
     1 1Z8         1 TEMP              0 ****  ****    0 ROOT
