@<TRIPOS>MOLECULE
1Z8
   22    23     1     0     0
SMALL
bcc


@<TRIPOS>ATOM
      1 C2          0.0120    0.1920   -0.1780 c3        1 1Z8      0.631600
      2 C5          1.5140    0.0660   -0.0180 cc        1 1Z8      0.220600
      3 C10         2.2800   -0.0390    1.2120 cc        1 1Z8     -0.137300
      4 C11         1.8510   -0.0460    2.5890 ca        1 1Z8     -0.019000
      5 C12         0.7920    0.7610    3.0280 ca        1 1Z8     -0.112500
      6 C13         0.4170    0.7600    4.3700 ca        1 1Z8     -0.128000
      7 C14         1.0920   -0.0440    5.2880 ca        1 1Z8     -0.122000
      8 C15         2.1440   -0.8530    4.8590 ca        1 1Z8     -0.128000
      9 C16         2.5240   -0.8550    3.5190 ca        1 1Z8     -0.112500
     10 F1         -0.4580    1.4670    0.0320 f         1 1Z8     -0.230300
     11 F3         -0.4740   -0.1430   -1.4170 f         1 1Z8     -0.230300
     12 F4         -0.7190   -0.5880    0.6820 f         1 1Z8     -0.230300
     13 N6          2.3550    0.0440   -1.0970 nd        1 1Z8     -0.457800
     14 N7          3.5850   -0.0720   -0.6200 na        1 1Z8      0.003400
     15 C9          3.6180   -0.1310    0.7740 cd        1 1Z8     -0.145300
     16 H18         0.2500    1.3910    2.3050 ha        1 1Z8      0.136500
     17 H19        -0.4150    1.3970    4.7040 ha        1 1Z8      0.135000
     18 H20         0.7930   -0.0440    6.3470 ha        1 1Z8      0.134000
     19 H21         2.6750   -1.4930    5.5790 ha        1 1Z8      0.135000
     20 H22         3.3510   -1.4980    3.1830 ha        1 1Z8      0.136500
     21 H8          4.3600   -0.1060   -1.2420 hn        1 1Z8      0.332700
     22 H17         4.5450   -0.2220    1.3390 h4        1 1Z8      0.189000
@<TRIPOS>BOND
     1    1    2 1   
     2    1   10 1   
     3    1   11 1   
     4    1   12 1   
     5    2    3 1   
     6    2   13 2   
     7    3    4 1   
     8    3   15 2   
     9    4    5 ar  
    10    4    9 ar  
    11    5    6 ar  
    12    5   16 1   
    13    6    7 ar  
    14    6   17 1   
    15    7    8 ar  
    16    7   18 1   
    17    8    9 ar  
    18    8   19 1   
    19    9   20 1   
    20   13   14 1   
    21   14   15 1   
    22   14   21 1   
    23   15   22 1   
@<TRIPOS>SUBSTRUCTURE
     1 1Z8         1 TEMP              0 ****  ****    0 ROOT
