@<TRIPOS>MOLECULE
1ZC
   25    26     1     0     0
SMALL
bcc


@<TRIPOS>ATOM
      1 C1          0.1650   -0.4860   -0.0240 c3        1 1ZC      0.112700
      2 C3          2.0530   -0.0370    1.3550 ca        1 1ZC      0.116100
      3 C5          1.8440    0.6430    3.6570 ca        1 1ZC     -0.102000
      4 C6          3.2310    0.6970    3.7750 ca        1 1ZC     -0.114000
      5 C7          4.0350    0.3790    2.6730 ca        1 1ZC     -0.131600
      6 C8          3.4550    0.0230    1.4540 ca        1 1ZC     -0.107000
      7 C11         6.1560   -0.2670    3.8770 cc        1 1ZC      0.104500
      8 C15         7.6440   -0.3990    4.0790 cc        1 1ZC      0.507900
      9 O2          1.5790   -0.4130    0.1130 os        1 1ZC     -0.323900
     10 C4          1.2430    0.2720    2.4550 ca        1 1ZC     -0.177000
     11 C9          5.5090    0.4350    2.7570 c         1 1ZC      0.528200
     12 O10         6.2000    1.0260    1.9180 o         1 1ZC     -0.528100
     13 N12         5.5910   -0.9220    4.9060 nd        1 1ZC     -0.272300
     14 O13         6.5530   -1.3960    5.6690 os        1 1ZC      0.133600
     15 N14         7.7910   -1.1160    5.2340 nd        1 1ZC     -0.444300
     16 N16         8.6010    0.0420    3.2130 nh        1 1ZC     -0.930500
     17 H18        -0.2610   -1.2470    0.6740 h1        1 1ZC      0.046700
     18 H17        -0.3010    0.5140    0.1530 h1        1 1ZC      0.046700
     19 H19         0.0240   -0.8040   -1.0890 h1        1 1ZC      0.046700
     20 H21         1.2140    0.8930    4.5240 ha        1 1ZC      0.140000
     21 H22         3.6860    0.9950    4.7310 ha        1 1ZC      0.146000
     22 H23         4.0760   -0.2050    0.5750 ha        1 1ZC      0.163000
     23 H20         0.1480    0.2280    2.3820 ha        1 1ZC      0.142000
     24 H25         9.5410    0.0820    3.5260 hn        1 1ZC      0.448300
     25 H24         8.3050    0.6900    2.5170 hn        1 1ZC      0.448300
@<TRIPOS>BOND
     1    1    9 1   
     2    1   17 1   
     3    1   18 1   
     4    1   19 1   
     5    2    6 ar  
     6    2    9 1   
     7    2   10 ar  
     8    3    4 ar  
     9    3   10 ar  
    10    3   20 1   
    11    4    5 ar  
    12    4   21 1   
    13    5    6 ar  
    14    5   11 1   
    15    6   22 1   
    16    7    8 1   
    17    7   11 1   
    18    7   13 2   
    19    8   15 2   
    20    8   16 1   
    21   10   23 1   
    22   11   12 2   
    23   13   14 1   
    24   14   15 1   
    25   16   24 1   
    26   16   25 1   
@<TRIPOS>SUBSTRUCTURE
     1 1ZC         1 TEMP              0 ****  ****    0 ROOT
