@<TRIPOS>MOLECULE
1ZQ
   33    35     1     0     0
SMALL
bcc


@<TRIPOS>ATOM
      1 O01         0.0730    0.1130    0.1700 oh        1 1ZQ     -0.636300
      2 C02         1.4480    0.0770    0.0580 ca        1 1ZQ      0.557600
      3 C03         2.1630    0.0410    1.2900 ca        1 1ZQ      0.011800
      4 O04         1.5550    0.0500    2.5180 oh        1 1ZQ     -0.484100
      5 C05         3.5560   -0.0090    1.2330 ca        1 1ZQ     -0.102000
      6 C06         4.1940   -0.0170   -0.0200 cp        1 1ZQ     -0.132300
      7 C07         5.6520   -0.1050   -0.0530 cp        1 1ZQ     -0.055000
      8 C08         6.4210    0.7760    0.7210 ca        1 1ZQ     -0.088500
      9 C09         7.8090    0.6870    0.7310 ca        1 1ZQ     -0.167000
     10 C10         8.4450   -0.3040   -0.0390 ca        1 1ZQ      0.131900
     11 F11         9.7960   -0.3990   -0.0330 f         1 1ZQ     -0.138900
     12 C12         7.6820   -1.1960   -0.8140 ca        1 1ZQ     -0.167000
     13 C13         6.2960   -1.0900   -0.8150 ca        1 1ZQ     -0.088500
     14 C14         3.3990    0.0450   -1.1920 cq        1 1ZQ      0.468800
     15 C15         4.0160    0.0880   -2.5330 cq        1 1ZQ     -0.157500
     16 C16         3.7470   -0.9260   -3.4610 ca        1 1ZQ     -0.079000
     17 C17         4.3070   -0.8830   -4.7340 ca        1 1ZQ     -0.170500
     18 C18         5.1380    0.1950   -5.0890 ca        1 1ZQ      0.132900
     19 F19         5.6850    0.2450   -6.3270 f         1 1ZQ     -0.138900
     20 C20         5.4000    1.2240   -4.1650 ca        1 1ZQ     -0.170500
     21 C21         4.8350    1.1650   -2.8960 ca        1 1ZQ     -0.079000
     22 N22         2.0400    0.0810   -1.1530 nb        1 1ZQ     -0.696000
     23 H1          0.5950    0.0750    2.3750 ho        1 1ZQ      0.442000
     24 H2          4.1420   -0.0510    2.1640 ha        1 1ZQ      0.165000
     25 H4          5.9210    1.5480    1.3260 ha        1 1ZQ      0.144000
     26 H5          8.4130    1.3810    1.3340 ha        1 1ZQ      0.151500
     27 H6          8.1870   -1.9690   -1.4110 ha        1 1ZQ      0.151500
     28 H7          5.6950   -1.7830   -1.4260 ha        1 1ZQ      0.144000
     29 H8          3.0840   -1.7600   -3.1840 ha        1 1ZQ      0.146000
     30 H9          4.1030   -1.6780   -5.4650 ha        1 1ZQ      0.151500
     31 H10         6.0450    2.0660   -4.4540 ha        1 1ZQ      0.151500
     32 H11         5.0360    1.9680   -2.1710 ha        1 1ZQ      0.146000
     33 H12        -0.3230    0.1480   -0.7170 ho        1 1ZQ      0.452000
@<TRIPOS>BOND
     1    1    2 1   
     2    1   33 1   
     3    2    3 ar  
     4    2   22 ar  
     5    3    4 1   
     6    3    5 ar  
     7    4   23 1   
     8    5    6 ar  
     9    5   24 1   
    10    6    7 1   
    11    6   14 2   
    12    7    8 ar  
    13    7   13 ar  
    14    8    9 ar  
    15    8   25 1   
    16    9   10 ar  
    17    9   26 1   
    18   10   11 1   
    19   10   12 ar  
    20   12   13 ar  
    21   12   27 1   
    22   13   28 1   
    23   14   15 1   
    24   14   22 1   
    25   15   16 1   
    26   15   21 2   
    27   16   17 ar  
    28   16   29 1   
    29   17   18 ar  
    30   17   30 1   
    31   18   19 1   
    32   18   20 ar  
    33   20   21 ar  
    34   20   31 1   
    35   21   32 1   
@<TRIPOS>SUBSTRUCTURE
     1 1ZQ         1 TEMP              0 ****  ****    0 ROOT
