@<TRIPOS>MOLECULE
1ZQ
   33    35     1     0     0
SMALL
bcc


@<TRIPOS>ATOM
      1 O01         -0.0860     0.1040    -0.0060 oh         1 1ZQ      -0.591300
      2 C02          1.2870     0.0560     0.0010 ca         1 1ZQ       0.619600
      3 C03          1.9190     0.1220     1.2830 ca         1 1ZQ       0.001800
      4 O04          1.1090     0.2370     2.3820 oh         1 1ZQ      -0.463100
      5 C05          3.3090     0.0660     1.3270 ca         1 1ZQ      -0.153000
      6 C06          4.0400    -0.0520     0.1300 cp         1 1ZQ      -0.135300
      7 C07          5.4960    -0.1480     0.2160 cp         1 1ZQ      -0.053000
      8 C08          6.1810    -1.2200    -0.3730 ca         1 1ZQ      -0.091000
      9 C09          7.5620    -1.3310    -0.2560 ca         1 1ZQ      -0.166500
     10 C10          8.2780    -0.3540     0.4610 ca         1 1ZQ       0.130900
     11 F11          9.6230    -0.4540     0.5790 f          1 1ZQ      -0.137900
     12 C12          7.6000     0.7260     1.0560 ca         1 1ZQ      -0.166500
     13 C13          6.2180     0.8180     0.9320 ca         1 1ZQ      -0.091000
     14 C14          3.3330    -0.0900    -1.0930 cq         1 1ZQ       0.476800
     15 C15          4.0420    -0.1660    -2.3870 cq         1 1ZQ      -0.158500
     16 C16          3.7850    -1.2240    -3.2670 ca         1 1ZQ      -0.078000
     17 C17          4.4350    -1.2940    -4.4950 ca         1 1ZQ      -0.171000
     18 C18          5.3450    -0.2830    -4.8550 ca         1 1ZQ       0.133900
     19 F19          5.9800    -0.3420    -6.0500 f          1 1ZQ      -0.138900
     20 C20          5.5960     0.7910    -3.9800 ca         1 1ZQ      -0.171000
     21 C21          4.9410     0.8430    -2.7550 ca         1 1ZQ      -0.078000
     22 N22          1.9740    -0.0450    -1.1540 nb         1 1ZQ      -0.712000
     23 H1           1.6780     0.2450     3.1670 ho         1 1ZQ       0.419000
     24 H2           3.8390     0.1030     2.2910 ha         1 1ZQ       0.149000
     25 H4           5.6180    -1.9790    -0.9390 ha         1 1ZQ       0.143500
     26 H5           8.0990    -2.1720    -0.7170 ha         1 1ZQ       0.152000
     27 H6           8.1670     1.4850     1.6120 ha         1 1ZQ       0.152000
     28 H7           5.6850     1.6610     1.3980 ha         1 1ZQ       0.143500
     29 H8           3.0610    -2.0050    -2.9890 ha         1 1ZQ       0.146000
     30 H9           4.2400    -2.1240    -5.1880 ha         1 1ZQ       0.151500
     31 H10          6.3040     1.5790    -4.2740 ha         1 1ZQ       0.151500
     32 H11          5.1340     1.6820    -2.0680 ha         1 1ZQ       0.146000
     33 H12         -0.4030     0.0650    -0.9250 ho         1 1ZQ       0.440000
@<TRIPOS>BOND
     1     1     2 1   
     2     1    33 1   
     3     2     3 ar  
     4     2    22 ar  
     5     3     4 1   
     6     3     5 ar  
     7     4    23 1   
     8     5     6 ar  
     9     5    24 1   
    10     6     7 1   
    11     6    14 2   
    12     7     8 ar  
    13     7    13 ar  
    14     8     9 ar  
    15     8    25 1   
    16     9    10 ar  
    17     9    26 1   
    18    10    11 1   
    19    10    12 ar  
    20    12    13 ar  
    21    12    27 1   
    22    13    28 1   
    23    14    15 1   
    24    14    22 1   
    25    15    16 1   
    26    15    21 2   
    27    16    17 ar  
    28    16    29 1   
    29    17    18 ar  
    30    17    30 1   
    31    18    19 1   
    32    18    20 ar  
    33    20    21 ar  
    34    20    31 1   
    35    21    32 1   
@<TRIPOS>SUBSTRUCTURE
     1 1ZQ         1 TEMP              0 ****  ****    0 ROOT
