@<TRIPOS>MOLECULE
molecule
   33    35     1     0     0
SMALL
bcc


@<TRIPOS>ATOM
      1 O01          0.0000     0.0000     0.0000 oh         1 1ZQ      -0.607300
      2 C02          1.3570     0.0000     0.0000 ca         1 1ZQ       0.631600
      3 C03          2.0450     0.0000     1.2150 ca         1 1ZQ      -0.021200
      4 O04          1.3610     0.0010     2.3910 oh         1 1ZQ      -0.499100
      5 C05          3.4320    -0.0000     1.2110 ca         1 1ZQ      -0.104000
      6 C06          4.0930    -0.0010    -0.0200 cp         1 1ZQ      -0.156300
      7 C07          5.5740    -0.0030    -0.0770 cp         1 1ZQ      -0.062000
      8 C08          6.3040     0.9210     0.6700 ca         1 1ZQ      -0.089500
      9 C09          7.6820     0.9160     0.6130 ca         1 1ZQ      -0.169500
     10 C10          8.3410    -0.0050    -0.1850 ca         1 1ZQ       0.138900
     11 F11          9.6910    -0.0070    -0.2370 f          1 1ZQ      -0.137900
     12 C12          7.6210    -0.9260    -0.9290 ca         1 1ZQ      -0.169500
     13 C13          6.2420    -0.9310    -0.8740 ca         1 1ZQ      -0.089500
     14 C14          3.3340    -0.0020    -1.1990 cq         1 1ZQ       0.513800
     15 C15          4.0190    -0.0040    -2.5140 cq         1 1ZQ      -0.174500
     16 C16          3.4660    -0.6960    -3.5890 ca         1 1ZQ      -0.072500
     17 C17          4.1070    -0.6950    -4.8110 ca         1 1ZQ      -0.177500
     18 C18          5.3000    -0.0060    -4.9690 ca         1 1ZQ       0.145900
     19 F19          5.9270    -0.0130    -6.1660 f          1 1ZQ      -0.138900
     20 C20          5.8530     0.6830    -3.9020 ca         1 1ZQ      -0.177500
     21 C21          5.2160     0.6920    -2.6790 ca         1 1ZQ      -0.072500
     22 N22          2.0080    -0.0060    -1.1480 nb         1 1ZQ      -0.728000
     23 H1           1.4190    -0.8520     2.7890 ho         1 1ZQ       0.422000
     24 H2           3.9890    -0.0000     2.1400 ha         1 1ZQ       0.156000
     25 H4           5.7900     1.6420     1.2940 ha         1 1ZQ       0.146500
     26 H5           8.2500     1.6340     1.1920 ha         1 1ZQ       0.150000
     27 H6           8.1400    -1.6460    -1.5490 ha         1 1ZQ       0.150000
     28 H7           5.6790    -1.6510    -1.4560 ha         1 1ZQ       0.146500
     29 H8           2.5330    -1.2340    -3.4660 ha         1 1ZQ       0.154000
     30 H9           3.6780    -1.2320    -5.6480 ha         1 1ZQ       0.149500
     31 H10          6.7840     1.2220    -4.0310 ha         1 1ZQ       0.149500
     32 H11          5.6500     1.2320    -1.8460 ha         1 1ZQ       0.154000
     33 H12         -0.3140     0.7250    -0.5140 ho         1 1ZQ       0.438000
@<TRIPOS>BOND
     1    19    18 1
     2    18    20 ar
     3    18    17 ar
     4    20    21 ar
     5    11    10 1
     6    17    16 ar
     7    21    15 1
     8    10     9 ar
     9    10    12 ar
    10     9     8 ar
    11    12    13 ar
    12    16    15 2
    13    15    14 1
    14     8     7 ar
    15    13     7 ar
    16     7     6 1
    17    14     6 1
    18    14    22 2
    19     6     5 ar
    20    22     2 ar
    21     5     3 ar
    22     2     3 ar
    23     2     1 1
    24     3     4 1
    25     4    23 1
    26     5    24 1
    27     8    25 1
    28     9    26 1
    29    12    27 1
    30    13    28 1
    31    16    29 1
    32    17    30 1
    33    20    31 1
    34    21    32 1
    35     1    33 1
@<TRIPOS>SUBSTRUCTURE
     1 1ZQ         1 TEMP              0 ****  ****    0 ROOT
