@<TRIPOS>MOLECULE
1ZW
   21    21     1     0     0
SMALL
bcc


@<TRIPOS>ATOM
      1 CAK         -0.4060     1.2470     0.3290 cs         1 1ZW       0.040200
      2 SAC          0.8410     2.0620     0.2390 s          1 1ZW       0.136600
      3 NAJ         -0.6510     0.0470     1.1700 ny         1 1ZW      -0.625800
      4 CAI          0.5030    -0.3860     2.0300 c3         1 1ZW       0.160100
      5 CAM          0.1390    -1.5960     2.8210 ca         1 1ZW      -0.176300
      6 CAG          0.3900    -2.8710     2.3030 ca         1 1ZW      -0.104000
      7 CAE          0.0900    -4.0030     3.0570 ca         1 1ZW      -0.086000
      8 CAL         -0.4650    -3.8610     4.3380 ca         1 1ZW       0.054000
      9 CAD         -0.7730    -5.0140     5.1100 cg         1 1ZW       0.192800
     10 NAB         -1.0250    -5.9580     5.7410 n1         1 1ZW      -0.279800
     11 CAF         -0.7120    -2.5820     4.8600 ca         1 1ZW      -0.086000
     12 CAH         -0.4110    -1.4540     4.1010 ca         1 1ZW      -0.104000
     13 H1          -1.3590     1.4200    -0.2320 hx         1 1ZW       0.096200
     14 H3           0.7730     0.4730     2.7100 hx         1 1ZW       0.114700
     15 H4           1.3820    -0.5970     1.3540 hx         1 1ZW       0.114700
     16 H5           0.8430    -2.9890     1.3060 ha         1 1ZW       0.146000
     17 H6           0.2950    -5.0080     2.6520 ha         1 1ZW       0.174000
     18 H7          -1.1380    -2.4710     5.8720 ha         1 1ZW       0.174000
     19 H8          -0.5900    -0.4530     4.5240 ha         1 1ZW       0.146000
     20 H2          -0.9110    -0.7390     0.5570 hn         1 1ZW       0.456800
     21 HAJ2        -1.4600     0.2320     1.7820 hn         1 1ZW       0.456800
@<TRIPOS>BOND
     1     1     2 2   
     2     1     3 1   
     3     1    13 1   
     4     3     4 1   
     5     3    20 1   
     6     3    21 1   
     7     4     5 1   
     8     4    14 1   
     9     4    15 1   
    10     5     6 ar  
    11     5    12 ar  
    12     6     7 ar  
    13     6    16 1   
    14     7     8 ar  
    15     7    17 1   
    16     8     9 1   
    17     8    11 ar  
    18     9    10 3   
    19    11    12 ar  
    20    11    18 1   
    21    12    19 1   
@<TRIPOS>SUBSTRUCTURE
     1 1ZW         1 TEMP              0 ****  ****    0 ROOT
