@<TRIPOS>MOLECULE
molecule
   20    20     1     0     0
SMALL
bcc


@<TRIPOS>ATOM
      1 CAK          0.0000     0.0000     0.0000 cs         1 1ZW       0.375200
      2 SAC          1.5990     0.0000     0.0000 s          1 1ZW      -0.403400
      3 NAJ         -0.6750     0.0000     1.1660 ns         1 1ZW      -0.422900
      4 CAI          0.0570    -0.0050     2.4350 c3         1 1ZW       0.005300
      5 CAM         -0.9230    -0.0040     3.5800 ca         1 1ZW      -0.086300
      6 CAG         -1.3750    -1.2030     4.1010 ca         1 1ZW      -0.150500
      7 CAE         -2.2720    -1.2090     5.1490 ca         1 1ZW      -0.104000
      8 CAL         -2.7230    -0.0010     5.6850 ca         1 1ZW       0.048000
      9 CAD         -3.6540     0.0000     6.7730 cg         1 1ZW       0.238800
     10 NAB         -4.3770    -0.0020     7.6490 n1         1 1ZW      -0.356800
     11 CAF         -2.2610     1.2060     5.1550 ca         1 1ZW      -0.104000
     12 CAH         -1.3610     1.1970     4.1100 ca         1 1ZW      -0.150500
     13 H1          -0.8690     0.1290    -0.6330 h5         1 1ZW       0.065200
     14 H3           0.9170    -0.6600     2.5090 h1         1 1ZW       0.067700
     15 H4           0.6240     0.8600     2.7580 h1         1 1ZW       0.067700
     16 H5          -0.9910    -2.2040     3.9430 ha         1 1ZW       0.140000
     17 H6          -2.2380    -2.2920     5.1610 ha         1 1ZW       0.167500
     18 H7          -2.2400     2.2620     5.3930 ha         1 1ZW       0.167500
     19 H8          -0.7550     1.9700     3.6540 ha         1 1ZW       0.140000
     20 H2          -1.1000     0.8430     1.4980 hn         1 1ZW       0.297500
@<TRIPOS>BOND
     1    10     9 3
     2     9     8 1
     3    11     8 ar
     4    11    12 ar
     5     8     7 ar
     6    12     5 ar
     7     7     6 ar
     8     5     6 ar
     9     5     4 1
    10     4     3 1
    11     3     1 1
    12     2     1 2
    13     1    13 1
    14     4    14 1
    15     4    15 1
    16     6    16 1
    17     7    17 1
    18    11    18 1
    19    12    19 1
    20     3    20 1
@<TRIPOS>SUBSTRUCTURE
     1 1ZW         1 TEMP              0 ****  ****    0 ROOT
