@<TRIPOS>MOLECULE
1ZW
   20    20     1     0     0
SMALL
bcc


@<TRIPOS>ATOM
      1 CAK          0.0000     0.0000     0.0000 cs         1 1ZW       0.318200
      2 SAC          1.5990     0.0000     0.0000 s          1 1ZW      -0.435400
      3 NAJ         -0.6750     0.0000     1.1660 ns         1 1ZW      -0.117900
      4 CAI          0.0570    -0.0050     2.4350 c3         1 1ZW      -0.016700
      5 CAM         -0.9230    -0.0040     3.5800 ca         1 1ZW      -0.097300
      6 CAG         -1.3750    -1.2030     4.1010 ca         1 1ZW      -0.126000
      7 CAE         -2.2720    -1.2090     5.1490 ca         1 1ZW      -0.091000
      8 CAL         -2.7230    -0.0010     5.6850 ca         1 1ZW       0.111000
      9 CAD         -3.6540     0.0000     6.7730 cg         1 1ZW       0.224800
     10 NAB         -4.3770    -0.0020     7.6490 n1         1 1ZW      -0.372800
     11 CAF         -2.2610     1.2060     5.1550 ca         1 1ZW      -0.091000
     12 CAH         -1.3610     1.1970     4.1100 ca         1 1ZW      -0.126000
     13 H1          -0.8690     0.1290    -0.6330 h5         1 1ZW       0.021200
     14 H3           0.9170    -0.6600     2.5090 h1         1 1ZW       0.047700
     15 H4           0.6240     0.8600     2.7580 h1         1 1ZW       0.047700
     16 H5          -0.9910    -2.2040     3.9430 ha         1 1ZW       0.117000
     17 H6          -2.2380    -2.2920     5.1610 ha         1 1ZW       0.141000
     18 H7          -2.2400     2.2620     5.3930 ha         1 1ZW       0.141000
     19 H8          -0.7550     1.9700     3.6540 ha         1 1ZW       0.117000
     20 H2          -1.1000     0.8430     1.4980 hn         1 1ZW       0.188500
@<TRIPOS>BOND
     1     1     2 2   
     2     1     3 1   
     3     1    13 1   
     4     3     4 1   
     5     3    20 1   
     6     4     5 1   
     7     4    14 1   
     8     4    15 1   
     9     5     6 ar  
    10     5    12 ar  
    11     6     7 ar  
    12     6    16 1   
    13     7     8 ar  
    14     7    17 1   
    15     8     9 1   
    16     8    11 ar  
    17     9    10 3   
    18    11    12 ar  
    19    11    18 1   
    20    12    19 1   
@<TRIPOS>SUBSTRUCTURE
     1 1ZW         1 TEMP              0 ****  ****    0 ROOT
