@<TRIPOS>MOLECULE
1ZZ
   71    73     1     0     0
SMALL
bcc


@<TRIPOS>ATOM
      1 P            0.0000     0.0000     0.0000 p5         1 1ZZ       0.918800
      2 C1          13.5360     7.3770     5.1690 c3         1 1ZZ       0.005900
      3 N1          -1.9950    -6.3630    -0.5030 na         1 1ZZ       0.219000
      4 O1           1.5620     1.8090     1.2680 o          1 1ZZ      -0.570000
      5 C2          12.0080     7.3120     5.1240 c3         1 1ZZ      -0.029400
      6 N2          -1.7160    -7.4550     1.3670 nc         1 1ZZ      -0.521100
      7 O2           1.6100     0.0000     0.0000 os         1 1ZZ      -0.463500
      8 C3          11.5740     6.1100     4.2820 c3         1 1ZZ      -0.030400
      9 N3          -2.3290    -8.3900    -1.9170 nb         1 1ZZ      -0.664000
     10 O3          -0.4930     0.0000     1.3950 o          1 1ZZ      -0.638500
     11 C4          10.0450     6.0450     4.2360 c3         1 1ZZ      -0.029400
     12 N4          -2.2100   -10.3970    -0.7760 nb         1 1ZZ      -0.756000
     13 O4          -0.5360     1.3150    -0.7590 o          1 1ZZ      -0.638500
     14 C5           9.6120     4.8440     3.3940 c3         1 1ZZ      -0.029400
     15 N5          -1.8030   -10.5230     1.5430 nv         1 1ZZ      -0.494500
     16 O5          -0.5370    -1.3140    -0.7590 os         1 1ZZ      -0.503200
     17 C6           8.0830     4.7790     3.3480 c3         1 1ZZ      -0.029400
     18 O6          -1.4960    -4.0610    -0.8980 os         1 1ZZ      -0.374600
     19 C7           7.6490     3.5760     2.5070 c3         1 1ZZ      -0.030400
     20 O7          -4.1150    -5.4540    -2.8340 oh         1 1ZZ      -0.545800
     21 C8           6.1210     3.5120     2.4610 c3         1 1ZZ      -0.028400
     22 O8          -4.0780    -2.9150    -3.0340 oh         1 1ZZ      -0.554800
     23 C9           5.6870     2.3100     1.6190 c3         1 1ZZ      -0.032400
     24 C10          4.1590     2.2450     1.5730 c3         1 1ZZ      -0.020400
     25 C11          3.7250     1.0430     0.7320 c3         1 1ZZ      -0.095400
     26 C12          2.2200     0.9790     0.6860 c          1 1ZZ       0.755100
     27 C13         -1.9220    -1.6560    -0.8370 c3         1 1ZZ       0.317400
     28 C14         -2.0820    -2.9580    -1.6240 c3         1 1ZZ       0.146100
     29 C15         -3.5770    -3.3240    -1.7600 c3         1 1ZZ       0.130100
     30 C16         -3.5990    -4.8650    -1.6390 c3         1 1ZZ       0.120100
     31 C17         -2.1150    -5.2460    -1.4430 c3         1 1ZZ       0.135800
     32 C18         -1.7610    -6.2670     0.8370 cd         1 1ZZ       0.272700
     33 C19         -1.9190    -8.3870     0.4040 ca         1 1ZZ      -0.240200
     34 C20         -2.1040    -7.6970    -0.8060 ca         1 1ZZ       0.264800
     35 C21         -2.3780    -9.7050    -1.8880 ca         1 1ZZ       0.672900
     36 C22         -1.9770    -9.7900     0.3840 ca         1 1ZZ       0.586200
     37 H1          13.9220     6.4700     5.6200 hc         1 1ZZ      -0.001633
     38 H1A         13.8440     8.2320     5.7580 hc         1 1ZZ      -0.001633
     39 H1B         13.9230     7.4730     4.1620 hc         1 1ZZ      -0.001633
     40 H2          11.6200     7.2080     6.1300 hc         1 1ZZ       0.011700
     41 H2A         11.6210     8.2220     4.6810 hc         1 1ZZ       0.011700
     42 H3          11.9610     6.2140     3.2760 hc         1 1ZZ       0.013700
     43 H3A         11.9600     5.2000     4.7260 hc         1 1ZZ       0.013700
     44 H4           9.6580     6.9550     3.7930 hc         1 1ZZ       0.014700
     45 H4A          9.6580     5.9400     5.2420 hc         1 1ZZ       0.014700
     46 H5           9.9990     4.9490     2.3880 hc         1 1ZZ       0.012700
     47 H5A          9.9980     3.9340     3.8370 hc         1 1ZZ       0.012700
     48 HN5         -1.6290   -10.0550     2.4100 hn         1 1ZZ       0.273300
     49 HN5A        -1.8490   -11.5230     1.5140 hn         1 1ZZ       0.273300
     50 HO7         -4.9960    -5.7530    -2.6820 ho         1 1ZZ       0.383000
     51 H8           5.7350     4.4220     2.0180 hc         1 1ZZ       0.016200
     52 H8A          5.7340     3.4070     3.4680 hc         1 1ZZ       0.016200
     53 HO8         -4.8580    -2.3990    -2.9140 ho         1 1ZZ       0.382000
     54 H9           6.0740     2.4150     0.6130 hc         1 1ZZ       0.007700
     55 H9A          6.0740     1.4010     2.0620 hc         1 1ZZ       0.007700
     56 H10          3.7720     2.1390     2.5800 hc         1 1ZZ       0.028200
     57 H10A         3.7720     3.1540     1.1310 hc         1 1ZZ       0.028200
     58 H11          4.1120     1.1480    -0.2750 hc         1 1ZZ       0.019200
     59 H11A         4.1120     0.1330     1.1740 hc         1 1ZZ       0.019200
     60 H13         -2.3180    -1.7880     0.1630 h1         1 1ZZ      -0.007800
     61 H13A        -2.4630    -0.8620    -1.3380 h1         1 1ZZ      -0.007800
     62 H14         -1.6270    -2.8710    -2.6040 h1         1 1ZZ       0.044700
     63 H15         -4.1500    -2.8750    -0.9580 h1         1 1ZZ       0.017700
     64 H16         -4.1820    -5.1660    -0.7770 h1         1 1ZZ       0.010700
     65 H17         -1.6650    -5.4990    -2.3960 h2         1 1ZZ       0.064700
     66 H18         -1.6320    -5.3390     1.3810 h5         1 1ZZ       0.053800
     67 H21         -2.5660   -10.2400    -2.8120 h5         1 1ZZ      -0.010900
     68 H6           7.6960     5.6880     2.9040 hc         1 1ZZ       0.014700
     69 H34          7.6960     4.6740     4.3540 hc         1 1ZZ       0.014700
     70 H7           8.0370     3.6810     1.5000 hc         1 1ZZ       0.011700
     71 H36          8.0360     2.6670     2.9500 hc         1 1ZZ       0.011700
@<TRIPOS>BOND
     1     1     7 1   
     2     1    10 1   
     3     1    13 1   
     4     1    16 1   
     5     2     5 1   
     6     2    37 1   
     7     2    38 1   
     8     2    39 1   
     9     3    31 1   
    10     3    32 1   
    11     3    34 1   
    12     4    26 2   
    13     5     8 1   
    14     5    40 1   
    15     5    41 1   
    16     6    32 2   
    17     6    33 1   
    18     7    26 1   
    19     8    11 1   
    20     8    42 1   
    21     8    43 1   
    22     9    34 ar  
    23     9    35 ar  
    24    11    14 1   
    25    11    44 1   
    26    11    45 1   
    27    12    35 ar  
    28    12    36 ar  
    29    14    17 1   
    30    14    46 1   
    31    14    47 1   
    32    15    36 1   
    33    15    48 1   
    34    15    49 1   
    35    16    27 1   
    36    17    19 1   
    37    17    68 1   
    38    17    69 1   
    39    18    28 1   
    40    18    31 1   
    41    19    21 1   
    42    19    70 1   
    43    19    71 1   
    44    20    30 1   
    45    20    50 1   
    46    21    23 1   
    47    21    51 1   
    48    21    52 1   
    49    22    29 1   
    50    22    53 1   
    51    23    24 1   
    52    23    54 1   
    53    23    55 1   
    54    24    25 1   
    55    24    56 1   
    56    24    57 1   
    57    25    26 1   
    58    25    58 1   
    59    25    59 1   
    60    27    28 1   
    61    27    60 1   
    62    27    61 1   
    63    28    29 1   
    64    28    62 1   
    65    29    30 1   
    66    29    63 1   
    67    30    31 1   
    68    30    64 1   
    69    31    65 1   
    70    32    66 1   
    71    33    34 ar  
    72    33    36 ar  
    73    35    67 1   
@<TRIPOS>SUBSTRUCTURE
     1 1ZZ         1 TEMP              0 ****  ****    0 ROOT
