@<TRIPOS>MOLECULE
1ZZ
   71    73     1     0     0
SMALL
bcc


@<TRIPOS>ATOM
      1 P            0.9110    -0.7210    -1.3230 p5         1 1ZZ       1.484800
      2 C1          14.6820     2.6650     0.7480 c3         1 1ZZ      -0.091100
      3 N1           0.0250    -6.4190    -3.1850 na         1 1ZZ      -0.274000
      4 O1           3.0130    -3.3150    -2.3200 o          1 1ZZ      -0.610000
      5 C2          13.4880     2.2470    -0.0710 c3         1 1ZZ      -0.080400
      6 N2           1.6260    -6.3470    -4.8510 nc         1 1ZZ      -0.565100
      7 O2           2.1870    -1.2680    -2.2780 os         1 1ZZ      -0.604500
      8 C3          12.8450     0.9930     0.4820 c3         1 1ZZ      -0.078400
      9 N3          -1.3640    -8.3060    -4.1290 nb         1 1ZZ      -0.722000
     10 O3           1.1310    -1.5360    -0.1100 o          1 1ZZ      -0.821500
     11 C4          11.6470     0.5780    -0.3440 c3         1 1ZZ      -0.079400
     12 N4          -0.4410    -9.1940    -6.2320 nb         1 1ZZ      -0.802000
     13 O4           0.8450     0.7340    -1.4540 o          1 1ZZ      -0.821500
     14 C5          11.0050    -0.6760     0.2100 c3         1 1ZZ      -0.078400
     15 N5           1.4830    -8.2270    -7.2860 nv         1 1ZZ      -0.949500
     16 O5          -0.3550    -1.4110    -2.0990 os         1 1ZZ      -0.572200
     17 C6           9.8070    -1.0920    -0.6180 c3         1 1ZZ      -0.080400
     18 O6          -1.4480    -4.8150    -2.2360 os         1 1ZZ      -0.415600
     19 C7           9.1660    -2.3460    -0.0640 c3         1 1ZZ      -0.076400
     20 O7          -0.4750    -6.5290     0.3360 oh         1 1ZZ      -0.590800
     21 C8           7.9770    -2.7980    -0.8860 c3         1 1ZZ      -0.078400
     22 O8          -0.0790    -4.0000     0.7750 oh         1 1ZZ      -0.635800
     23 C9           6.7430    -1.9580    -0.6330 c3         1 1ZZ      -0.079400
     24 C10          5.5690    -2.4520    -1.4500 c3         1 1ZZ      -0.073400
     25 C11          4.3420    -1.6030    -1.2050 c3         1 1ZZ      -0.165400
     26 C12          3.1390    -2.1400    -1.9370 c          1 1ZZ       0.747100
     27 C13         -0.2650    -2.7280    -2.5430 c3         1 1ZZ       0.174400
     28 C14         -0.8360    -3.7260    -1.5220 c3         1 1ZZ       0.065100
     29 C15          0.2230    -4.3180    -0.5650 c3         1 1ZZ       0.102100
     30 C16          0.1330    -5.8490    -0.7360 c3         1 1ZZ       0.114100
     31 C17         -0.7440    -6.0400    -2.0190 c3         1 1ZZ       0.211800
     32 C18          1.1990    -5.8090    -3.6990 cd         1 1ZZ       0.431700
     33 C19          0.6960    -7.3540    -5.1520 ca         1 1ZZ      -0.220200
     34 C20         -0.3320    -7.4080    -4.1150 ca         1 1ZZ       0.455800
     35 C21         -1.3270    -9.1290    -5.1990 ca         1 1ZZ       0.664900
     36 C22          0.5890    -8.2850    -6.2340 ca         1 1ZZ       0.732200
     37 H1          15.1410     3.5900     0.3230 hc         1 1ZZ       0.030033
     38 H1A         15.4560     1.8600     0.7570 hc         1 1ZZ       0.030033
     39 H1B         14.3820     2.8730     1.8040 hc         1 1ZZ       0.030033
     40 H2          12.7330     3.0770    -0.0880 hc         1 1ZZ       0.038700
     41 H2A         13.8040     2.0670    -1.1330 hc         1 1ZZ       0.038700
     42 H3          12.5270     1.1720     1.5430 hc         1 1ZZ       0.037700
     43 H3A         13.5980     0.1620     0.4990 hc         1 1ZZ       0.037700
     44 H4          11.9650     0.4000    -1.4050 hc         1 1ZZ       0.040700
     45 H4A         10.8940     1.4090    -0.3600 hc         1 1ZZ       0.040700
     46 H5          11.7570    -1.5080     0.2280 hc         1 1ZZ       0.036700
     47 H5A         10.6840    -0.4970     1.2700 hc         1 1ZZ       0.036700
     48 HN5          2.3090    -7.6980    -7.1390 hn         1 1ZZ       0.429800
     49 HN5A         1.5300    -8.9920    -7.9140 hn         1 1ZZ       0.429800
     50 HO7         -1.0820    -5.9170     0.7750 ho         1 1ZZ       0.427000
     51 H8           8.2360    -2.7640    -1.9770 hc         1 1ZZ       0.039700
     52 H8A          7.7460    -3.8680    -0.6350 hc         1 1ZZ       0.039700
     53 HO8          0.2950    -3.1160     0.9420 ho         1 1ZZ       0.478000
     54 H9           6.9550    -0.8860    -0.8890 hc         1 1ZZ       0.038200
     55 H9A          6.4820    -1.9910     0.4580 hc         1 1ZZ       0.038200
     56 H10          5.8280    -2.4290    -2.5410 hc         1 1ZZ       0.050700
     57 H10A         5.3410    -3.5200    -1.1910 hc         1 1ZZ       0.050700
     58 H11          4.0890    -1.5910    -0.1100 hc         1 1ZZ       0.077700
     59 H11A         4.5250    -0.5460    -1.5280 hc         1 1ZZ       0.077700
     60 H13         -0.8870    -2.7980    -3.4810 h1         1 1ZZ       0.050200
     61 H13A         0.8030    -2.9830    -2.7880 h1         1 1ZZ       0.050200
     62 H14         -1.6680    -3.2430    -0.9410 h1         1 1ZZ       0.090700
     63 H15          1.2580    -3.9690    -0.8340 h1         1 1ZZ       0.095700
     64 H16          1.1500    -6.3120    -0.8400 h1         1 1ZZ       0.089700
     65 H17         -1.5430    -6.8240    -1.8540 h2         1 1ZZ       0.117700
     66 H18          1.6920    -4.9720    -3.1670 h5         1 1ZZ       0.117800
     67 H21         -2.1470    -9.8770    -5.2500 h5         1 1ZZ       0.039100
     68 H6          10.1270    -1.2690    -1.6790 hc         1 1ZZ       0.041700
     69 H34          9.0550    -0.2590    -0.6350 hc         1 1ZZ       0.041700
     70 H7           9.9300    -3.1690    -0.0440 hc         1 1ZZ       0.035200
     71 H36          8.8450    -2.1660     0.9960 hc         1 1ZZ       0.035200
@<TRIPOS>BOND
     1     1     7 1   
     2     1    10 1   
     3     1    13 1   
     4     1    16 1   
     5     2     5 1   
     6     2    37 1   
     7     2    38 1   
     8     2    39 1   
     9     3    31 1   
    10     3    32 1   
    11     3    34 1   
    12     4    26 2   
    13     5     8 1   
    14     5    40 1   
    15     5    41 1   
    16     6    32 2   
    17     6    33 1   
    18     7    26 1   
    19     8    11 1   
    20     8    42 1   
    21     8    43 1   
    22     9    34 ar  
    23     9    35 ar  
    24    11    14 1   
    25    11    44 1   
    26    11    45 1   
    27    12    35 ar  
    28    12    36 ar  
    29    14    17 1   
    30    14    46 1   
    31    14    47 1   
    32    15    36 1   
    33    15    48 1   
    34    15    49 1   
    35    16    27 1   
    36    17    19 1   
    37    17    68 1   
    38    17    69 1   
    39    18    28 1   
    40    18    31 1   
    41    19    21 1   
    42    19    70 1   
    43    19    71 1   
    44    20    30 1   
    45    20    50 1   
    46    21    23 1   
    47    21    51 1   
    48    21    52 1   
    49    22    29 1   
    50    22    53 1   
    51    23    24 1   
    52    23    54 1   
    53    23    55 1   
    54    24    25 1   
    55    24    56 1   
    56    24    57 1   
    57    25    26 1   
    58    25    58 1   
    59    25    59 1   
    60    27    28 1   
    61    27    60 1   
    62    27    61 1   
    63    28    29 1   
    64    28    62 1   
    65    29    30 1   
    66    29    63 1   
    67    30    31 1   
    68    30    64 1   
    69    31    65 1   
    70    32    66 1   
    71    33    34 ar  
    72    33    36 ar  
    73    35    67 1   
@<TRIPOS>SUBSTRUCTURE
     1 1ZZ         1 TEMP              0 ****  ****    0 ROOT
