@<TRIPOS>MOLECULE
molecule
   71    73     1     0     0
SMALL
bcc


@<TRIPOS>ATOM
      1 P            0.0000     0.0000     0.0000 p5         1 1ZZ       1.330800
      2 C1          13.5360     7.3770     5.1690 c3         1 1ZZ      -0.092100
      3 N1          -1.9950    -6.3630    -0.5030 na         1 1ZZ      -0.246000
      4 O1           1.5620     1.8090     1.2680 o          1 1ZZ      -0.506000
      5 C2          12.0080     7.3120     5.1240 c3         1 1ZZ      -0.084400
      6 N2          -1.7160    -7.4550     1.3670 nc         1 1ZZ      -0.607100
      7 O2           1.6100     0.0000     0.0000 os         1 1ZZ      -0.549500
      8 C3          11.5740     6.1100     4.2820 c3         1 1ZZ      -0.082400
      9 N3          -2.3290    -8.3900    -1.9170 nb         1 1ZZ      -0.779000
     10 O3          -0.4930     0.0000     1.3950 o          1 1ZZ      -0.795000
     11 C4          10.0450     6.0450     4.2360 c3         1 1ZZ      -0.082400
     12 N4          -2.2100   -10.3970    -0.7760 nb         1 1ZZ      -0.846000
     13 O4          -0.5360     1.3150    -0.7590 o          1 1ZZ      -0.795000
     14 C5           9.6120     4.8440     3.3940 c3         1 1ZZ      -0.082400
     15 N5          -1.8030   -10.5230     1.5430 nv         1 1ZZ      -0.990500
     16 O5          -0.5370    -1.3140    -0.7590 os         1 1ZZ      -0.595200
     17 C6           8.0830     4.7790     3.3480 c3         1 1ZZ      -0.082400
     18 O6          -1.4960    -4.0610    -0.8980 os         1 1ZZ      -0.390600
     19 C7           7.6490     3.5760     2.5070 c3         1 1ZZ      -0.082400
     20 O7          -4.1150    -5.4540    -2.8340 oh         1 1ZZ      -0.565800
     21 C8           6.1210     3.5120     2.4610 c3         1 1ZZ      -0.080400
     22 O8          -4.0780    -2.9150    -3.0340 oh         1 1ZZ      -0.574800
     23 C9           5.6870     2.3100     1.6190 c3         1 1ZZ      -0.084400
     24 C10          4.1590     2.2450     1.5730 c3         1 1ZZ      -0.072400
     25 C11          3.7250     1.0430     0.7320 c3         1 1ZZ      -0.138400
     26 C12          2.2200     0.9790     0.6860 c          1 1ZZ       0.682100
     27 C13         -1.9220    -1.6560    -0.8370 c3         1 1ZZ       0.238400
     28 C14         -2.0820    -2.9580    -1.6240 c3         1 1ZZ       0.122100
     29 C15         -3.5770    -3.3240    -1.7600 c3         1 1ZZ       0.090100
     30 C16         -3.5990    -4.8650    -1.6390 c3         1 1ZZ       0.084100
     31 C17         -2.1150    -5.2460    -1.4430 c3         1 1ZZ       0.247800
     32 C18         -1.7610    -6.2670     0.8370 cd         1 1ZZ       0.448700
     33 C19         -1.9190    -8.3870     0.4040 ca         1 1ZZ      -0.209200
     34 C20         -2.1040    -7.6970    -0.8060 ca         1 1ZZ       0.471800
     35 C21         -2.3780    -9.7050    -1.8880 ca         1 1ZZ       0.726900
     36 C22         -1.9770    -9.7900     0.3840 ca         1 1ZZ       0.781200
     37 H1          13.9220     6.4700     5.6200 hc         1 1ZZ       0.030700
     38 H1A         13.8440     8.2320     5.7580 hc         1 1ZZ       0.030700
     39 H1B         13.9230     7.4730     4.1620 hc         1 1ZZ       0.030700
     40 H2          11.6200     7.2080     6.1300 hc         1 1ZZ       0.039700
     41 H2A         11.6210     8.2220     4.6810 hc         1 1ZZ       0.039700
     42 H3          11.9610     6.2140     3.2760 hc         1 1ZZ       0.039700
     43 H3A         11.9600     5.2000     4.7260 hc         1 1ZZ       0.039700
     44 H4           9.6580     6.9550     3.7930 hc         1 1ZZ       0.040700
     45 H4A          9.6580     5.9400     5.2420 hc         1 1ZZ       0.040700
     46 H5           9.9990     4.9490     2.3880 hc         1 1ZZ       0.039700
     47 H5A          9.9980     3.9340     3.8370 hc         1 1ZZ       0.039700
     48 HN5         -1.6290   -10.0550     2.4100 hn         1 1ZZ       0.446300
     49 HN5A        -1.8490   -11.5230     1.5140 hn         1 1ZZ       0.446300
     50 HO7         -4.9960    -5.7530    -2.6820 ho         1 1ZZ       0.400000
     51 H8           5.7350     4.4220     2.0180 hc         1 1ZZ       0.043700
     52 H8A          5.7340     3.4070     3.4680 hc         1 1ZZ       0.043700
     53 HO8         -4.8580    -2.3990    -2.9140 ho         1 1ZZ       0.399000
     54 H9           6.0740     2.4150     0.6130 hc         1 1ZZ       0.035200
     55 H9A          6.0740     1.4010     2.0620 hc         1 1ZZ       0.035200
     56 H10          3.7720     2.1390     2.5800 hc         1 1ZZ       0.059200
     57 H10A         3.7720     3.1540     1.1310 hc         1 1ZZ       0.059200
     58 H11          4.1120     1.1480    -0.2750 hc         1 1ZZ       0.057700
     59 H11A         4.1120     0.1330     1.1740 hc         1 1ZZ       0.057700
     60 H13         -2.3180    -1.7880     0.1630 h1         1 1ZZ       0.043700
     61 H13A        -2.4630    -0.8620    -1.3380 h1         1 1ZZ       0.043700
     62 H14         -1.6270    -2.8710    -2.6040 h1         1 1ZZ       0.085700
     63 H15         -4.1500    -2.8750    -0.9580 h1         1 1ZZ       0.052700
     64 H16         -4.1820    -5.1660    -0.7770 h1         1 1ZZ       0.049700
     65 H17         -1.6650    -5.4990    -2.3960 h2         1 1ZZ       0.105700
     66 H18         -1.6320    -5.3390     1.3810 h5         1 1ZZ       0.102800
     67 H21         -2.5660   -10.2400    -2.8120 h5         1 1ZZ       0.055100
     68 H6           7.6960     5.6880     2.9040 hc         1 1ZZ       0.041700
     69 H34          7.6960     4.6740     4.3540 hc         1 1ZZ       0.041700
     70 H7           8.0370     3.6810     1.5000 hc         1 1ZZ       0.037700
     71 H36          8.0360     2.6670     2.9500 hc         1 1ZZ       0.037700
@<TRIPOS>BOND
     1     1    10 1
     2     1    13 1
     3     3    31 1
     4     3    32 1
     5     4    26 2
     6     5     2 1
     7     6    32 2
     8     7     1 1
     9     8     5 1
    10     9    34 ar
    11    11     8 1
    12    12    35 ar
    13    12    36 ar
    14    14    11 1
    15    15    36 1
    16    16     1 1
    17    17    14 1
    18    18    28 1
    19    19    17 1
    20    20    30 1
    21    21    19 1
    22    21    23 1
    23    23    24 1
    24    24    25 1
    25    26     7 1
    26    26    25 1
    27    27    16 1
    28    28    27 1
    29    29    22 1
    30    29    28 1
    31    30    29 1
    32    30    31 1
    33    31    18 1
    34    33     6 1
    35    33    34 ar
    36    34     3 1
    37    35     9 ar
    38    36    33 ar
    39     2    37 1
    40     2    38 1
    41     2    39 1
    42     5    40 1
    43     5    41 1
    44     8    42 1
    45     8    43 1
    46    11    44 1
    47    11    45 1
    48    14    46 1
    49    14    47 1
    50    15    48 1
    51    15    49 1
    52    20    50 1
    53    21    51 1
    54    21    52 1
    55    22    53 1
    56    23    54 1
    57    23    55 1
    58    24    56 1
    59    24    57 1
    60    25    58 1
    61    25    59 1
    62    27    60 1
    63    27    61 1
    64    28    62 1
    65    29    63 1
    66    30    64 1
    67    31    65 1
    68    32    66 1
    69    35    67 1
    70    17    68 1
    71    17    69 1
    72    19    70 1
    73    19    71 1
@<TRIPOS>SUBSTRUCTURE
     1 1ZZ         1 TEMP              0 ****  ****    0 ROOT
