@<TRIPOS>MOLECULE
molecule
   36    38     1     0     0
SMALL
bcc


@<TRIPOS>ATOM
      1 N1           0.0000     0.0000     0.0000 na         1 E02      -0.165300
      2 C2           1.3610     0.0000     0.0000 cc         1 E02       0.427700
      3 N3           1.8070     0.0000     1.2220 nd         1 E02      -0.574100
      4 C4           0.7640     0.0010     2.0900 ca         1 E02       0.100400
      5 C5          -0.4100     0.0070     1.3180 ca         1 E02      -0.068200
      6 C6          -1.6480     0.0080     1.9450 ca         1 E02      -0.152000
      7 C7          -1.7160     0.0040     3.3230 ca         1 E02      -0.111000
      8 C8          -0.5570    -0.0000     4.0840 ca         1 E02      -0.147000
      9 C9           0.6710     0.0020     3.4840 ca         1 E02      -0.058000
     10 C10         -0.8690     0.0000    -1.1800 c3         1 E02      -0.028700
     11 C11         -1.2650     1.4160    -1.5110 c          1 E02       0.533700
     12 O12         -0.8620     2.3340    -0.8290 o          1 E02      -0.452100
     13 C13         -2.1410     1.6840    -2.6610 ca         1 E02      -0.171600
     14 C14         -2.5060     2.9980    -2.9760 ca         1 E02       0.048000
     15 C15         -3.3270     3.2420    -4.0550 ca         1 E02      -0.349500
     16 C16         -3.7900     2.1890    -4.8300 ca         1 E02       0.103400
     17 C17         -3.4320     0.8870    -4.5250 ca         1 E02      -0.120000
     18 C18         -2.6070     0.6280    -3.4500 ca         1 E02      -0.003000
     19 S19         -3.7890     4.8940    -4.4520 sy         1 E02       1.243200
     20 O20         -5.1980     4.8840    -4.6380 o          1 E02      -0.504300
     21 Cl21        -4.8240     2.5060    -6.1870 cl         1 E02      -0.068400
     22 O22         -3.1360     5.7320    -3.5080 o          1 E02      -0.504300
     23 N23         -3.1260     5.2490    -5.9280 nz         1 E02      -0.811500
     24 H2           1.9820    -0.0000    -0.8880 h5         1 E02       0.071800
     25 H6          -2.6620    -0.1660     1.6060 ha         1 E02       0.130000
     26 H7          -2.6630     0.0270     3.8490 ha         1 E02       0.137000
     27 H8          -0.6040    -0.0120     5.1660 ha         1 E02       0.141000
     28 H9           1.5460    -0.0030     4.1240 ha         1 E02       0.150000
     29 H10         -0.3380    -0.4320    -2.0190 h1         1 E02       0.084200
     30 H10A        -1.7570    -0.5850    -0.9750 h1         1 E02       0.084200
     31 H14         -2.1450     3.8210    -2.3720 ha         1 E02       0.197000
     32 H17         -3.7960     0.0690    -5.1350 ha         1 E02       0.181000
     33 H18         -2.3280    -0.3910    -3.2130 ha         1 E02       0.170000
     34 HN23        -3.0300     6.2400    -6.0220 hn         1 E02       0.495800
     35 HN2A        -3.7220     4.9010    -6.6540 hn         1 E02       0.495800
     36 H233        -2.2250     4.8180    -6.0020 hn         1 E02       0.495800
@<TRIPOS>BOND
     1     5     1 1
     2     1     2 1
     3     1    10 1
     4     3     2 2
     5     2    24 1
     6     4     3 1
     7     9     4 ar
     8     4     5 ar
     9     6     5 ar
    10     7     6 ar
    11     6    25 1
    12     8     7 ar
    13     7    26 1
    14     8     9 ar
    15     8    27 1
    16     9    28 1
    17    10    11 1
    18    10    29 1
    19    10    30 1
    20    12    11 2
    21    11    13 1
    22    13    18 ar
    23    13    14 ar
    24    14    15 ar
    25    14    31 1
    26    15    16 ar
    27    15    19 1
    28    17    16 ar
    29    16    21 1
    30    18    17 ar
    31    17    32 1
    32    18    33 1
    33    23    19 1
    34    22    19 2
    35    19    20 2
    36    23    34 1
    37    23    35 1
    38    36    23 1
@<TRIPOS>SUBSTRUCTURE
     1 E02         1 TEMP              0 ****  ****    0 ROOT
