@<TRIPOS>MOLECULE
E04
   63    67     1     0     0
SMALL
bcc


@<TRIPOS>ATOM
      1 O26          0.0000     0.0000     0.0000 o          1 E04      -0.587500
      2 C20          1.2080     0.0000     0.0000 c          1 E04       0.801600
      3 C21          1.9950     0.0000     1.2920 c3         1 E04      -0.169000
      4 C25          1.0570    -0.2940     2.4640 c3         1 E04       0.015900
      5 C24          2.6550     1.3660     1.4930 c3         1 E04       0.015900
      6 C22          3.0740    -1.0860     1.2100 c3         1 E04      -0.021400
      7 C23          3.9110    -0.8660    -0.0530 c3         1 E04      -0.075400
      8 C17          3.0100    -0.9500    -1.2830 c3         1 E04       0.206800
      9 O19          1.9100    -0.0090    -1.1580 os         1 E04      -0.419900
     10 C13          3.8000    -0.6940    -2.5560 c3         1 E04      -0.066000
     11 C18          2.8500    -0.2490    -3.6700 c3         1 E04      -0.031100
     12 C14          4.2820    -2.1130    -2.9690 c3         1 E04      -0.053700
     13 C15          3.0120    -2.9440    -2.7560 c3         1 E04      -0.018400
     14 C16          2.4500    -2.3830    -1.4190 c3         1 E04      -0.066400
     15 C8           4.7810    -2.0180    -4.3960 c3         1 E04      -0.060700
     16 C9           6.0060    -1.0940    -4.3820 c3         1 E04      -0.010400
     17 C11          5.6510     0.3030    -3.8940 c3         1 E04      -0.029400
     18 C12          4.9920     0.2410    -2.5020 c3         1 E04      -0.005400
     19 C10          6.6430    -1.0630    -5.7440 ca         1 E04       0.023700
     20 C1           7.4790     0.0050    -6.0450 ca         1 E04      -0.091000
     21 C2           8.0930     0.0940    -7.2740 ca         1 E04      -0.091000
     22 C3           7.8720    -0.9010    -8.2280 ca         1 E04      -0.248600
     23 C27          8.5280    -0.8230    -9.5510 c          1 E04       0.358700
     24 O29          8.3330    -1.6920   -10.3780 o          1 E04      -0.437100
     25 N28          9.3430     0.2110    -9.8400 nz         1 E04       0.201600
     26 C4           7.0290    -1.9680    -7.9260 ca         1 E04       0.017000
     27 C5           6.4120    -2.0470    -6.6850 ca         1 E04      -0.071300
     28 C6           5.5070    -3.2240    -6.4330 c3         1 E04       0.029900
     29 C7           5.2020    -3.3810    -4.9440 c3         1 E04      -0.024400
     30 H251         1.6260    -0.3110     3.3860 hc         1 E04       0.014200
     31 H252         0.2980     0.4760     2.5220 hc         1 E04       0.014200
     32 H253         0.5840    -1.2570     2.3150 hc         1 E04       0.014200
     33 H241         1.9570     2.0360     1.9810 hc         1 E04       0.014200
     34 H242         3.5380     1.2540     2.1100 hc         1 E04       0.014200
     35 H243         2.9360     1.7760     0.5300 hc         1 E04       0.014200
     36 H221         3.7140    -1.0260     2.0820 hc         1 E04       0.029700
     37 H222         2.6030    -2.0610     1.1660 hc         1 E04       0.029700
     38 H231         4.3740     0.1120    -0.0120 hc         1 E04       0.034700
     39 H232         4.6760    -1.6310    -0.1160 hc         1 E04       0.034700
     40 H181         2.4940     0.7520    -3.4620 hc         1 E04       0.024700
     41 H182         2.0080    -0.9290    -3.7200 hc         1 E04       0.024700
     42 H183         3.3760    -0.2560    -4.6170 hc         1 E04       0.024700
     43 H14          5.0720    -2.4510    -2.3100 hc         1 E04       0.040700
     44 H151         3.2560    -3.9950    -2.6560 hc         1 E04       0.026700
     45 H152         2.3090    -2.7820    -3.5630 hc         1 E04       0.026700
     46 H161         1.3670    -2.3570    -1.4550 hc         1 E04       0.040700
     47 H162         2.7860    -2.9940    -0.5900 hc         1 E04       0.040700
     48 H8           4.0090    -1.5930    -5.0270 hc         1 E04       0.065700
     49 H9           6.7270    -1.5120    -3.6900 hc         1 E04       0.051700
     50 H111         4.9610     0.7600    -4.5940 hc         1 E04       0.023200
     51 H112         6.5540     0.8990    -3.8340 hc         1 E04       0.023200
     52 H121         4.6470     1.2330    -2.2340 hc         1 E04       0.029700
     53 H122         5.7110    -0.1480    -1.7920 hc         1 E04       0.029700
     54 H1           7.6500     0.7760    -5.3040 ha         1 E04       0.137000
     55 H2           8.6420     0.9890    -7.5410 ha         1 E04       0.081000
     56 H281         9.7200     0.0920   -10.7590 hn         1 E04       0.245800
     57 H282         8.8240     1.0650    -9.8000 hn         1 E04       0.245800
     58 H4           6.8550    -2.7410    -8.6630 ha         1 E04       0.134000
     59 H61          4.5780    -3.0770    -6.9700 hc         1 E04       0.034200
     60 H62          5.9910    -4.1250    -6.7920 hc         1 E04       0.034200
     61 H71          4.3960    -4.0930    -4.8110 hc         1 E04       0.031700
     62 H72          6.0890    -3.7240    -4.4250 hc         1 E04       0.031700
     63 H283        10.1010     0.2300    -9.1870 hn         1 E04       0.245800
@<TRIPOS>BOND
     1     1     2 2   
     2     2     3 1   
     3     2     9 1   
     4     3     4 1   
     5     3     5 1   
     6     3     6 1   
     7     4    30 1   
     8     4    31 1   
     9     4    32 1   
    10     5    33 1   
    11     5    34 1   
    12     5    35 1   
    13     6     7 1   
    14     6    36 1   
    15     6    37 1   
    16     7     8 1   
    17     7    38 1   
    18     7    39 1   
    19     8     9 1   
    20     8    10 1   
    21     8    14 1   
    22    10    11 1   
    23    10    12 1   
    24    10    18 1   
    25    11    40 1   
    26    11    41 1   
    27    11    42 1   
    28    12    13 1   
    29    12    15 1   
    30    12    43 1   
    31    13    14 1   
    32    13    44 1   
    33    13    45 1   
    34    14    46 1   
    35    14    47 1   
    36    15    16 1   
    37    15    29 1   
    38    15    48 1   
    39    16    17 1   
    40    16    19 1   
    41    16    49 1   
    42    17    18 1   
    43    17    50 1   
    44    17    51 1   
    45    18    52 1   
    46    18    53 1   
    47    19    20 ar  
    48    19    27 ar  
    49    20    21 ar  
    50    20    54 1   
    51    21    22 ar  
    52    21    55 1   
    53    22    23 1   
    54    22    26 ar  
    55    23    24 2   
    56    23    25 1   
    57    25    56 1   
    58    25    57 1   
    59    25    63 1   
    60    26    27 ar  
    61    26    58 1   
    62    27    28 1   
    63    28    29 1   
    64    28    59 1   
    65    28    60 1   
    66    29    61 1   
    67    29    62 1   
@<TRIPOS>SUBSTRUCTURE
     1 E04         1 TEMP              0 ****  ****    0 ROOT
