@<TRIPOS>MOLECULE
molecule
   67    68     1     0     0
SMALL
bcc


@<TRIPOS>ATOM
      1 C6           0.0000     0.0000     0.0000 c3         1 E05      -0.088100
      2 C7           1.5300     0.0000     0.0000 c3         1 E05      -0.106200
      3 C8           2.0330     0.0000     1.4200 ce         1 E05       0.037600
      4 O9           8.7640     1.3120     8.6390 oh         1 E05      -0.603800
      5 C10          8.6580     2.7360     8.6980 c3         1 E05       0.147800
      6 C11          7.5410     3.1240     9.6690 c3         1 E05      -0.120100
      7 C12          9.9840     3.3260     9.1840 c3         1 E05      -0.120100
      8 C13          8.3350     3.2810     7.3060 c3         1 E05      -0.065400
      9 C14          6.9530     2.7910     6.8740 c3         1 E05      -0.080400
     10 C15          6.6300     3.3370     5.4810 c3         1 E05      -0.085400
     11 C16          5.2470     2.8450     5.0480 c3         1 E05      -0.076400
     12 C18          3.5630     2.9080     3.2300 ca         1 E05      -0.085300
     13 C19          3.4390     1.7180     2.5450 ca         1 E05      -0.089000
     14 C20          2.4390     3.6570     3.5310 ca         1 E05      -0.125000
     15 C21          1.1830     3.2220     3.1450 ca         1 E05      -0.129000
     16 C22          1.0430     2.0360     2.4540 ca         1 E05      -0.125000
     17 C23          2.1740     1.2700     2.1510 ca         1 E05      -0.037800
     18 C24          2.3540    -1.1650     2.0230 cf         1 E05      -0.437000
     19 C25          2.2190    -2.3850     1.3210 cf         1 E05      -0.199000
     20 C26          2.5410    -3.5520     1.9250 ce         1 E05       0.007800
     21 C27          3.0370    -3.5940     3.3150 ce         1 E05      -0.139200
     22 C28          3.9410    -2.7190     3.7610 c2         1 E05      -0.111000
     23 C29          2.4700    -4.6770     4.2110 c3         1 E05       0.193300
     24 O30          1.1220    -4.3550     4.5610 oh         1 E05      -0.603800
     25 C31          2.5020    -6.0020     3.4450 c3         1 E05      -0.101400
     26 C32          1.7080    -5.8690     2.1440 c3         1 E05       0.153100
     27 O33          1.6200    -7.1450     1.5080 oh         1 E05      -0.608800
     28 C34          2.4050    -4.8810     1.2090 c3         1 E05      -0.059200
     29 H1          -0.3610    -0.3480     0.9600 hc         1 E05       0.037367
     30 H2          -0.3610    -0.6570    -0.7820 hc         1 E05       0.037367
     31 H3          -0.3610     1.0060    -0.1790 hc         1 E05       0.037367
     32 H4           1.8910     0.8840    -0.5110 hc         1 E05       0.055700
     33 H5           1.8910    -0.8840    -0.5110 hc         1 E05       0.055700
     34 H6           9.2170     0.9980     9.4040 ho         1 E05       0.401000
     35 H7           6.7070     2.4430     9.5500 hc         1 E05       0.041533
     36 H8           7.2150     4.1350     9.4600 hc         1 E05       0.041533
     37 H9           7.9110     3.0670    10.6860 hc         1 E05       0.041533
     38 H10         10.7770     3.0380     8.5040 hc         1 E05       0.041533
     39 H11         10.2050     2.9510    10.1760 hc         1 E05       0.041533
     40 H12          9.9090     4.4060     9.2140 hc         1 E05       0.041533
     41 H13          9.0790     2.9320     6.6000 hc         1 E05       0.048700
     42 H14          8.3430     4.3640     7.3320 hc         1 E05       0.048700
     43 H15          6.9450     1.7080     6.8480 hc         1 E05       0.050700
     44 H16          6.2090     3.1400     7.5800 hc         1 E05       0.050700
     45 H17          7.3740     2.9890     4.7750 hc         1 E05       0.038700
     46 H18          6.6360     4.4200     5.5070 hc         1 E05       0.038700
     47 H19          5.2420     1.7620     5.0210 hc         1 E05       0.048200
     48 H20          4.5030     3.1930     5.7540 hc         1 E05       0.048200
     49 H21          5.6690     3.0430     2.9500 hc         1 E05       0.046200
     50 H22          4.9320     4.4750     3.6820 hc         1 E05       0.046200
     51 H23          4.3250     1.1710     2.2450 ha         1 E05       0.139000
     52 H24          2.5420     4.5890     4.0730 ha         1 E05       0.127000
     53 H25          0.3080     3.8150     3.3830 ha         1 E05       0.127000
     54 H26          0.0600     1.6960     2.1520 ha         1 E05       0.128000
     55 H27          1.4130    -1.6770     1.8630 ha         1 E05       0.333000
     56 H28          1.8570    -2.3850     0.3000 ha         1 E05       0.108000
     57 H29          4.2880    -2.7730     4.7860 ha         1 E05       0.128500
     58 H30          4.3290    -1.9560     3.0980 ha         1 E05       0.128500
     59 H31          3.0750    -4.7600     5.1060 h1         1 E05       0.040700
     60 H32          1.0380    -4.3360     5.5000 ho         1 E05       0.403000
     61 H33          2.0600    -6.7800     4.0560 hc         1 E05       0.057700
     62 H34          3.5280    -6.2590     3.2140 hc         1 E05       0.057700
     63 H35          0.7130    -5.5050     2.3690 h1         1 E05       0.050700
     64 H36          0.7150    -7.4020     1.4450 ho         1 E05       0.402000
     65 H37          3.3880    -5.2570     0.9510 hc         1 E05       0.062700
     66 H38          1.8120    -4.7510     0.3120 hc         1 E05       0.062700
     67 C17          4.9250     3.3920     3.6560 c3         1 E05      -0.035100
@<TRIPOS>BOND
     1     7     5 1
     2     6     5 1
     3     5     8 1
     4     5     4 1
     5     8     9 1
     6     9    10 1
     7    10    11 1
     8    11    67 1
     9     1     2 1
    10    22    21 2
    11    67    12 1
    12    28    20 1
    13    28    26 1
    14    21    20 1
    15    21    23 1
    16    25    26 1
    17    25    23 1
    18    24    23 1
    19    20    19 2
    20     2     3 1
    21    13    12 ar
    22    13    17 ar
    23    19    18 1
    24    26    27 1
    25    12    14 ar
    26     3    18 2
    27     3    17 1
    28    17    16 ar
    29    14    15 ar
    30    16    15 ar
    31     1    29 1
    32     1    30 1
    33     1    31 1
    34     2    32 1
    35     2    33 1
    36     4    34 1
    37     6    35 1
    38     6    36 1
    39     6    37 1
    40     7    38 1
    41     7    39 1
    42     7    40 1
    43     8    41 1
    44     8    42 1
    45     9    43 1
    46     9    44 1
    47    10    45 1
    48    10    46 1
    49    11    47 1
    50    11    48 1
    51    67    49 1
    52    67    50 1
    53    13    51 1
    54    14    52 1
    55    15    53 1
    56    16    54 1
    57    18    55 1
    58    19    56 1
    59    22    57 1
    60    22    58 1
    61    23    59 1
    62    24    60 1
    63    25    61 1
    64    25    62 1
    65    26    63 1
    66    27    64 1
    67    28    65 1
    68    28    66 1
@<TRIPOS>SUBSTRUCTURE
     1 E05         1 TEMP              0 ****  ****    0 ROOT
