@<TRIPOS>MOLECULE
E09
   39    41     1     0     0
SMALL
bcc


@<TRIPOS>ATOM
      1 C1           0.0000     0.0000     0.0000 cc         1 E09       0.083800
      2 C2           1.4860     0.0000     0.0000 c          1 E09       0.674900
      3 C3           2.2150     0.0000     1.2830 cc         1 E09      -0.203600
      4 C4           1.5060    -0.0070     2.4770 cd         1 E09      -0.377900
      5 C5          -0.6790    -0.0010     1.1690 cd         1 E09      -0.358200
      6 C6           0.0330    -0.0020     2.4480 c          1 E09       0.703900
      7 O8           2.0960     0.0010    -1.0500 o          1 E09      -0.562100
      8 O9          -0.5940    -0.0020     3.4920 o          1 E09      -0.603100
      9 N1          -0.6880    -0.0000    -1.1940 nm         1 E09      -0.408400
     10 C11         -1.9740    -0.0010    -1.8950 cx         1 E09       0.146800
     11 C12         -0.6490     0.0060    -2.6590 cx         1 E09       0.146800
     12 C17          3.5810     0.0000     1.6190 cc         1 E09      -0.090300
     13 C18          3.6660    -0.0010     2.9710 cd         1 E09      -0.310600
     14 N19          2.4140    -0.0010     3.4940 na         1 E09       0.563900
     15 C20          4.7380     0.0010     0.6540 c3         1 E09       0.305700
     16 O21          5.1040    -1.3450     0.3470 oh         1 E09      -0.587800
     17 C25          4.9450    -0.0020     3.7670 c3         1 E09       0.074900
     18 C26          5.3780    -1.4430     4.0360 c3         1 E09      -0.047400
     19 C7           6.6770    -1.4430     4.8440 c3         1 E09       0.227400
     20 C31          2.0910    -0.0030     4.9220 c3         1 E09      -0.055400
     21 O1           7.0820    -2.7920     5.0950 oh         1 E09      -0.590800
     22 H51         -1.7620    -0.0010     1.1580 ha         1 E09       0.137000
     23 H111        -2.5150     0.9380    -1.8850 h1         1 E09       0.045450
     24 H112        -2.5090    -0.9430    -1.8930 h1         1 E09       0.045450
     25 H121        -0.3710    -0.9310    -3.1250 h1         1 E09       0.045450
     26 H122        -0.3760     0.9500    -3.1160 h1         1 E09       0.045450
     27 H201         5.5820     0.5120     1.1020 h1         1 E09      -0.006300
     28 H202         4.4490     0.5130    -0.2560 h1         1 E09      -0.006300
     29 H21          5.6800    -1.3520    -0.4000 ho         1 E09       0.388000
     30 H251         4.7840     0.5080     4.7100 hc         1 E09       0.019200
     31 H252         5.7190     0.5100     3.2080 hc         1 E09       0.019200
     32 H261         4.6050    -1.9540     4.5950 hc         1 E09       0.035200
     33 H262         5.5400    -1.9530     3.0930 hc         1 E09       0.035200
     34 H71          6.5160    -0.9340     5.7860 h1         1 E09      -0.018800
     35 H72          7.4510    -0.9320     4.2850 h1         1 E09      -0.018800
     36 H311         1.8550    -1.0120     5.2380 h1         1 E09       0.038033
     37 H312         1.2380     0.6400     5.1000 h1         1 E09       0.038033
     38 H313         2.9410     0.3620     5.4850 h1         1 E09       0.038033
     39 HO1          7.8780    -2.7920     5.6000 ho         1 E09       0.389000
@<TRIPOS>BOND
     1     1     2 1   
     2     1     5 2   
     3     1     9 1   
     4     2     3 1   
     5     2     7 2   
     6     3     4 2   
     7     3    12 1   
     8     4     6 1   
     9     4    14 1   
    10     5     6 1   
    11     5    22 1   
    12     6     8 2   
    13     9    10 1   
    14     9    11 1   
    15    10    11 1   
    16    10    23 1   
    17    10    24 1   
    18    11    25 1   
    19    11    26 1   
    20    12    13 2   
    21    12    15 1   
    22    13    14 1   
    23    13    17 1   
    24    14    20 1   
    25    15    16 1   
    26    15    27 1   
    27    15    28 1   
    28    16    29 1   
    29    17    18 1   
    30    17    30 1   
    31    17    31 1   
    32    18    19 1   
    33    18    32 1   
    34    18    33 1   
    35    19    21 1   
    36    19    34 1   
    37    19    35 1   
    38    20    36 1   
    39    20    37 1   
    40    20    38 1   
    41    21    39 1   
@<TRIPOS>SUBSTRUCTURE
     1 E09         1 TEMP              0 ****  ****    0 ROOT
