@<TRIPOS>MOLECULE
molecule
   43    45     1     0     0
SMALL
bcc


@<TRIPOS>ATOM
      1 CAW          0.0000     0.0000     0.0000 c3         1 E0A      -0.093100
      2 CAV          1.5300     0.0000     0.0000 c3         1 E0A      -0.074400
      3 CAS          2.0400     0.0000     1.4430 c3         1 E0A      -0.061400
      4 CAR          3.5700    -0.0000     1.4430 c3         1 E0A      -0.220600
      5 SAQ          4.1750    -0.0000     3.1530 s6         1 E0A       1.324900
      6 OAT          3.8780     1.2370     3.7870 o          1 E0A      -0.626300
      7 OAU          3.8780    -1.2360     3.7870 o          1 E0A      -0.626300
      8 NAP          5.8240     0.0000     3.0080 nu         1 E0A      -0.758500
      9 CAC          6.4640     1.0440     2.3490 ca         1 E0A       0.129600
     10 CAB          5.9870     2.3430     2.4390 ca         1 E0A      -0.160000
     11 CAA          6.5940     3.4190     1.7970 ca         1 E0A      -0.115000
     12 CAF          7.7250     3.2200     1.0240 ca         1 E0A       0.009800
     13 CAE          8.1950     1.9150     0.9400 ca         1 E0A      -0.085000
     14 CAD          7.6210     0.8110     1.5730 ca         1 E0A      -0.032000
     15 CAG          8.2370    -0.4330     1.3800 ca         1 E0A      -0.082000
     16 CAH          9.3690    -0.5020     0.5910 ca         1 E0A      -0.143000
     17 CAI          9.9300     0.6120    -0.0280 ca         1 E0A      -0.027000
     18 CAJ          9.3410     1.8550     0.1320 ca         1 E0A      -0.139000
     19 CAL          9.5570     3.2420    -0.2930 c          1 E0A       0.320800
     20 OAM         10.4550     3.6380    -1.0130 o          1 E0A      -0.323000
     21 NAK          8.5790     4.0080     0.2590 n          1 E0A      -0.161300
     22 CAN          8.4440     5.4550     0.0750 c3         1 E0A       0.057300
     23 CAO          9.2260     6.1840     1.1680 c3         1 E0A      -0.118100
     24 H1          -0.3610    -0.1230    -1.0140 hc         1 E0A       0.037033
     25 H2          -0.3610    -0.8170     0.6130 hc         1 E0A       0.037033
     26 H3          -0.3610     0.9400     0.4010 hc         1 E0A       0.037033
     27 H4           1.8920    -0.8840    -0.5110 hc         1 E0A       0.044200
     28 H5           1.8920     0.8850    -0.5110 hc         1 E0A       0.044200
     29 H6           1.6790     0.8850     1.9530 hc         1 E0A       0.056200
     30 H7           1.6790    -0.8840     1.9530 hc         1 E0A       0.056200
     31 H8           3.9310     0.8840     0.9320 h1         1 E0A       0.102700
     32 H9           3.9310    -0.8850     0.9330 h1         1 E0A       0.102700
     33 H10          6.3630    -0.7280     3.4340 hn         1 E0A       0.467800
     34 H11          5.1050     2.5290     3.0400 ha         1 E0A       0.186000
     35 H12          6.1790     4.4140     1.9010 ha         1 E0A       0.141000
     36 H13          7.8340    -1.3260     1.8430 ha         1 E0A       0.136000
     37 H14          9.8410    -1.4670     0.4460 ha         1 E0A       0.137000
     38 H15         10.8180     0.5050    -0.6380 ha         1 E0A       0.148000
     39 H16          8.8360     5.7330    -0.8960 h1         1 E0A       0.062200
     40 H17          7.3980     5.7300     0.1340 h1         1 E0A       0.062200
     41 H18          8.5890     6.9250     1.6350 hc         1 E0A       0.047367
     42 H19          9.5570     5.4700     1.9130 hc         1 E0A       0.047367
     43 H20         10.0880     6.6740     0.7300 hc         1 E0A       0.047367
@<TRIPOS>BOND
     1     7     5 2
     2     6     5 2
     3     2     3 1
     4     2     1 1
     5     4     5 1
     6     4     3 1
     7     5     8 1
     8     8     9 1
     9    10     9 ar
    10    10    11 ar
    11     9    14 ar
    12    11    12 ar
    13    14    15 ar
    14    14    13 ar
    15    15    16 ar
    16    12    13 ar
    17    12    21 1
    18    13    18 ar
    19    16    17 ar
    20    23    22 1
    21    21    22 1
    22    21    19 1
    23    18    17 ar
    24    18    19 1
    25    19    20 2
    26     1    24 1
    27     1    25 1
    28     1    26 1
    29     2    27 1
    30     2    28 1
    31     3    29 1
    32     3    30 1
    33     4    31 1
    34     4    32 1
    35     8    33 1
    36    10    34 1
    37    11    35 1
    38    15    36 1
    39    16    37 1
    40    17    38 1
    41    22    39 1
    42    22    40 1
    43    23    41 1
    44    23    42 1
    45    23    43 1
@<TRIPOS>SUBSTRUCTURE
     1 E0A         1 TEMP              0 ****  ****    0 ROOT
