@<TRIPOS>MOLECULE
molecule
   54    57     1     0     0
SMALL
bcc


@<TRIPOS>ATOM
      1 CAV          0.0000     0.0000     0.0000 c3         1 E0B      -0.094900
      2 CAW          1.5320     0.0000     0.0000 c3         1 E0B       0.105000
      3 NAX          2.0050     0.0000     1.3910 n          1 E0B      -0.497800
      4 CBA          2.8770     0.9340     1.8200 c          1 E0B       0.663100
      5 OBC          3.1770     0.9910     2.9930 o          1 E0B      -0.607100
      6 CBB          3.4790     1.9080     0.8410 c3         1 E0B      -0.171100
      7 CAY          1.5090    -1.0370     2.3060 c3         1 E0B       0.105000
      8 CAZ         -0.0230    -1.0260     2.2800 c3         1 E0B      -0.094900
      9 CAU         -0.5060    -1.1780     0.8360 c3         1 E0B      -0.079700
     10 CAT         -2.0360    -1.2010     0.8100 c3         1 E0B       0.236800
     11 NAS         -2.5180    -2.3950     1.5100 n7         1 E0B      -0.917100
     12 SAP         -4.1050    -2.5000     1.9700 sy         1 E0B       1.430200
     13 OAQ         -4.2510    -3.7560     2.6190 o          1 E0B      -0.635800
     14 OAR         -4.4250    -1.2630     2.5910 o          1 E0B      -0.635800
     15 CAC         -5.0710    -2.5850     0.4990 ca         1 E0B      -0.333500
     16 CAB         -5.9560    -1.5900     0.1850 ca         1 E0B       0.026000
     17 CAA         -6.7470    -1.6040    -0.9640 ca         1 E0B      -0.182000
     18 CAF         -6.6550    -2.6590    -1.8520 ca         1 E0B       0.085800
     19 CAE         -5.7510    -3.6630    -1.5210 ca         1 E0B      -0.120000
     20 CAD         -4.9450    -3.6720    -0.3810 ca         1 E0B       0.066000
     21 CAG         -4.0820    -4.7700    -0.2140 ca         1 E0B      -0.100000
     22 CAH         -4.0730    -5.7550    -1.1650 ca         1 E0B      -0.120000
     23 CAI         -4.8810    -5.7280    -2.3000 ca         1 E0B      -0.036000
     24 CAJ         -5.7530    -4.6710    -2.4970 ca         1 E0B      -0.132000
     25 CAL         -6.7420    -4.2170    -3.4810 c          1 E0B       0.322800
     26 OAM         -7.0570    -4.8030    -4.4990 o          1 E0B      -0.309000
     27 NAK         -7.2440    -3.0290    -3.0550 n          1 E0B      -0.163300
     28 CAN         -8.2620    -2.2470    -3.7630 c3         1 E0B       0.054300
     29 CAO         -7.5790    -1.2790    -4.7320 c3         1 E0B      -0.116100
     30 H1          -0.3600    -0.0990    -1.0170 hc         1 E0B       0.055200
     31 H2          -0.3600     0.9270     0.4290 hc         1 E0B       0.055200
     32 H3           1.8940     0.8870    -0.5060 h1         1 E0B       0.056450
     33 H4           1.8940    -0.8870    -0.5060 h1         1 E0B       0.056450
     34 H5           2.7300     2.6320     0.5440 hc         1 E0B       0.060367
     35 H6           3.8300     1.3720    -0.0330 hc         1 E0B       0.060367
     36 H7           4.3110     2.4210     1.3080 hc         1 E0B       0.060367
     37 H8           1.8560    -0.8290     3.3110 h1         1 E0B       0.056450
     38 H9           1.8700    -2.0070     1.9840 h1         1 E0B       0.056450
     39 H10         -0.3830    -0.0880     2.6840 hc         1 E0B       0.055200
     40 H11         -0.3990    -1.8500     2.8750 hc         1 E0B       0.055200
     41 H12         -0.1190    -2.1030     0.4240 hc         1 E0B       0.054700
     42 H13         -2.4190    -0.3150     1.3010 h1         1 E0B       0.050700
     43 H14         -2.3790    -1.2220    -0.2180 h1         1 E0B       0.050700
     44 H15         -1.8880    -3.1460     1.7110 hn         1 E0B       0.453800
     45 H16         -6.0480    -0.7510     0.8640 ha         1 E0B       0.158000
     46 H17         -7.4310    -0.7870    -1.1600 ha         1 E0B       0.141000
     47 H18         -3.4360    -4.8350     0.6530 ha         1 E0B       0.150000
     48 H19         -3.4060    -6.5980    -1.0280 ha         1 E0B       0.139000
     49 H20         -4.8330    -6.5350    -3.0210 ha         1 E0B       0.149000
     50 H21         -8.9090    -2.9160    -4.3170 h1         1 E0B       0.065700
     51 H22         -8.8500    -1.6860    -3.0470 h1         1 E0B       0.065700
     52 H23         -7.3010    -0.3750    -4.2030 hc         1 E0B       0.047367
     53 H24         -8.2610    -1.0320    -5.5360 hc         1 E0B       0.047367
     54 H25         -6.6910    -1.7450    -5.1410 hc         1 E0B       0.047367
@<TRIPOS>BOND
     1     5     4 2
     2     6     4 1
     3     4     3 1
     4     3     2 1
     5     3     7 1
     6     2     1 1
     7     7     8 1
     8     1     9 1
     9     8     9 1
    10     9    10 1
    11    10    11 1
    12    11    12 1
    13    13    12 2
    14    12    14 2
    15    12    15 1
    16    15    16 ar
    17    15    20 ar
    18    21    20 ar
    19    21    22 ar
    20    16    17 ar
    21    20    19 ar
    22    22    23 ar
    23    19    18 ar
    24    19    24 ar
    25    17    18 ar
    26    23    24 ar
    27    18    27 1
    28    24    25 1
    29    27    25 1
    30    27    28 1
    31    25    26 2
    32    29    28 1
    33     1    30 1
    34     1    31 1
    35     2    32 1
    36     2    33 1
    37     6    34 1
    38     6    35 1
    39     6    36 1
    40     7    37 1
    41     7    38 1
    42     8    39 1
    43     8    40 1
    44     9    41 1
    45    10    42 1
    46    10    43 1
    47    11    44 1
    48    16    45 1
    49    17    46 1
    50    21    47 1
    51    22    48 1
    52    23    49 1
    53    28    50 1
    54    28    51 1
    55    29    52 1
    56    29    53 1
    57    29    54 1
@<TRIPOS>SUBSTRUCTURE
     1 E0B         1 TEMP              0 ****  ****    0 ROOT
