@<TRIPOS>MOLECULE
E0B
   54    57     1     0     0
SMALL
bcc


@<TRIPOS>ATOM
      1 CAV          0.0000     0.0000     0.0000 c3         1 E0B      -0.038900
      2 CAW          1.5320     0.0000     0.0000 c3         1 E0B       0.050000
      3 NAX          2.0050     0.0000     1.3910 n          1 E0B      -0.164800
      4 CBA          2.8770     0.9340     1.8200 c          1 E0B       0.590100
      5 OBC          3.1770     0.9910     2.9930 o          1 E0B      -0.645100
      6 CBB          3.4790     1.9080     0.8410 c3         1 E0B      -0.073100
      7 CAY          1.5090    -1.0370     2.3060 c3         1 E0B       0.050000
      8 CAZ         -0.0230    -1.0260     2.2800 c3         1 E0B      -0.038900
      9 CAU         -0.5060    -1.1780     0.8360 c3         1 E0B      -0.065700
     10 CAT         -2.0360    -1.2010     0.8100 c3         1 E0B       0.230800
     11 NAS         -2.5180    -2.3950     1.5100 n7         1 E0B      -0.590100
     12 SAP         -4.1050    -2.5000     1.9700 sy         1 E0B       1.049200
     13 OAQ         -4.2510    -3.7560     2.6190 o          1 E0B      -0.585800
     14 OAR         -4.4250    -1.2630     2.5910 o          1 E0B      -0.585800
     15 CAC         -5.0710    -2.5850     0.4990 ca         1 E0B      -0.171500
     16 CAB         -5.9560    -1.5900     0.1850 ca         1 E0B       0.053000
     17 CAA         -6.7470    -1.6040    -0.9640 ca         1 E0B      -0.150000
     18 CAF         -6.6550    -2.6590    -1.8520 ca         1 E0B      -0.054200
     19 CAE         -5.7510    -3.6630    -1.5210 ca         1 E0B      -0.136000
     20 CAD         -4.9450    -3.6720    -0.3810 ca         1 E0B       0.073000
     21 CAG         -4.0820    -4.7700    -0.2140 ca         1 E0B      -0.073000
     22 CAH         -4.0730    -5.7550    -1.1650 ca         1 E0B      -0.101000
     23 CAI         -4.8810    -5.7280    -2.3000 ca         1 E0B       0.011000
     24 CAJ         -5.7530    -4.6710    -2.4970 ca         1 E0B      -0.147000
     25 CAL         -6.7420    -4.2170    -3.4810 c          1 E0B       0.249800
     26 OAM         -7.0570    -4.8030    -4.4990 o          1 E0B      -0.352000
     27 NAK         -7.2440    -3.0290    -3.0550 n          1 E0B       0.223700
     28 CAN         -8.2620    -2.2470    -3.7630 c3         1 E0B      -0.010700
     29 CAO         -7.5790    -1.2790    -4.7320 c3         1 E0B      -0.015100
     30 H1          -0.3600    -0.0990    -1.0170 hc         1 E0B       0.027700
     31 H2          -0.3600     0.9270     0.4290 hc         1 E0B       0.027700
     32 H3           1.8940     0.8870    -0.5060 h1         1 E0B       0.029950
     33 H4           1.8940    -0.8870    -0.5060 h1         1 E0B       0.029950
     34 H5           2.7300     2.6320     0.5440 hc         1 E0B       0.024367
     35 H6           3.8300     1.3720    -0.0330 hc         1 E0B       0.024367
     36 H7           4.3110     2.4210     1.3080 hc         1 E0B       0.024367
     37 H8           1.8560    -0.8290     3.3110 h1         1 E0B       0.029950
     38 H9           1.8700    -2.0070     1.9840 h1         1 E0B       0.029950
     39 H10         -0.3830    -0.0880     2.6840 hc         1 E0B       0.027700
     40 H11         -0.3990    -1.8500     2.8750 hc         1 E0B       0.027700
     41 H12         -0.1190    -2.1030     0.4240 hc         1 E0B       0.031700
     42 H13         -2.4190    -0.3150     1.3010 h1         1 E0B       0.019200
     43 H14         -2.3790    -1.2220    -0.2180 h1         1 E0B       0.019200
     44 H15         -1.8880    -3.1460     1.7110 hn         1 E0B       0.352800
     45 H16         -6.0480    -0.7510     0.8640 ha         1 E0B       0.126000
     46 H17         -7.4310    -0.7870    -1.1600 ha         1 E0B       0.114000
     47 H18         -3.4360    -4.8350     0.6530 ha         1 E0B       0.128000
     48 H19         -3.4060    -6.5980    -1.0280 ha         1 E0B       0.106000
     49 H20         -4.8330    -6.5350    -3.0210 ha         1 E0B       0.113000
     50 H21         -8.9090    -2.9160    -4.3170 h1         1 E0B       0.034200
     51 H22         -8.8500    -1.6860    -3.0470 h1         1 E0B       0.034200
     52 H23         -7.3010    -0.3750    -4.2030 hc         1 E0B       0.012367
     53 H24         -8.2610    -1.0320    -5.5360 hc         1 E0B       0.012367
     54 H25         -6.6910    -1.7450    -5.1410 hc         1 E0B       0.012367
@<TRIPOS>BOND
     1     1     2 1   
     2     1     9 1   
     3     1    30 1   
     4     1    31 1   
     5     2     3 1   
     6     2    32 1   
     7     2    33 1   
     8     3     4 1   
     9     3     7 1   
    10     4     5 2   
    11     4     6 1   
    12     6    34 1   
    13     6    35 1   
    14     6    36 1   
    15     7     8 1   
    16     7    37 1   
    17     7    38 1   
    18     8     9 1   
    19     8    39 1   
    20     8    40 1   
    21     9    10 1   
    22     9    41 1   
    23    10    11 1   
    24    10    42 1   
    25    10    43 1   
    26    11    12 1   
    27    11    44 1   
    28    12    13 2   
    29    12    14 2   
    30    12    15 1   
    31    15    16 ar  
    32    15    20 ar  
    33    16    17 ar  
    34    16    45 1   
    35    17    18 ar  
    36    17    46 1   
    37    18    19 ar  
    38    18    27 1   
    39    19    20 ar  
    40    19    24 ar  
    41    20    21 ar  
    42    21    22 ar  
    43    21    47 1   
    44    22    23 ar  
    45    22    48 1   
    46    23    24 ar  
    47    23    49 1   
    48    24    25 1   
    49    25    26 2   
    50    25    27 1   
    51    27    28 1   
    52    28    29 1   
    53    28    50 1   
    54    28    51 1   
    55    29    52 1   
    56    29    53 1   
    57    29    54 1   
@<TRIPOS>SUBSTRUCTURE
     1 E0B         1 TEMP              0 ****  ****    0 ROOT
