@<TRIPOS>MOLECULE
molecule
   45    48     1     0     0
SMALL
bcc


@<TRIPOS>ATOM
      1 CAO          0.0000     0.0000     0.0000 c3         1 E0C      -0.115100
      2 CAN          1.5310     0.0000     0.0000 c3         1 E0C       0.057300
      3 NAA          2.0180     0.0000     1.3810 n          1 E0C      -0.160300
      4 CAE          2.2780    -1.1150     2.1140 c          1 E0C       0.321800
      5 OAM          2.1440    -2.2640     1.7380 o          1 E0C      -0.325000
      6 CAD          2.7440    -0.6900     3.4370 ca         1 E0C      -0.140000
      7 CAL          3.1600    -1.2550     4.6310 ca         1 E0C      -0.027000
      8 CAK          3.5300    -0.4330     5.6930 ca         1 E0C      -0.147000
      9 CAJ          3.5070     0.9360     5.6240 ca         1 E0C      -0.079000
     10 CAI          3.0910     1.5490     4.4340 ca         1 E0C      -0.031000
     11 CAC          2.7230     0.7130     3.3770 ca         1 E0C      -0.085000
     12 CAB          2.2880     1.1420     2.1290 ca         1 E0C       0.008800
     13 CAF          2.2200     2.5120     1.9390 ca         1 E0C      -0.112000
     14 CAG          2.5790     3.3800     2.9660 ca         1 E0C      -0.158000
     15 CAH          3.0120     2.9400     4.2080 ca         1 E0C       0.137600
     16 NAP          3.3580     3.8470     5.2050 nu         1 E0C      -0.753500
     17 SAQ          4.0980     5.2730     4.8060 sy         1 E0C       1.436200
     18 OAR          3.2780     5.8910     3.8250 o          1 E0C      -0.626800
     19 OAS          4.4490     5.9000     6.0330 o          1 E0C      -0.626800
     20 CAT          5.6140     4.8670     4.0040 ca         1 E0C      -0.339500
     21 CAU          5.8060     5.2050     2.6780 ca         1 E0C       0.033000
     22 CAV          6.9960     4.8870     2.0480 ca         1 E0C      -0.080900
     23 BrA          7.2560     5.3520     0.2340 br         1 E0C      -0.083100
     24 CAW          7.9950     4.2300     2.7430 ca         1 E0C      -0.010000
     25 CAX          7.8070     3.8900     4.0690 ca         1 E0C      -0.239000
     26 CAY          6.6170     4.2130     4.7040 ca         1 E0C       0.248100
     27 OBA          6.4300     3.8800     6.0080 os         1 E0C      -0.322900
     28 CBB          7.5010     3.1980     6.6640 c3         1 E0C       0.129700
     29 H1          -0.3610    -0.5660     0.8500 hc         1 E0C       0.046033
     30 H2          -0.3610     1.0190     0.0660 hc         1 E0C       0.046033
     31 H3          -0.3610    -0.4530    -0.9160 hc         1 E0C       0.046033
     32 H4           1.8920     0.8850    -0.5110 h1         1 E0C       0.062200
     33 H5           1.8920    -0.8850    -0.5100 h1         1 E0C       0.062200
     34 H6           3.1970    -2.3320     4.7390 ha         1 E0C       0.146000
     35 H7           3.8520    -0.8980     6.6170 ha         1 E0C       0.134000
     36 H8           3.8040     1.5340     6.4760 ha         1 E0C       0.136000
     37 H9           1.8880     2.9090     0.9870 ha         1 E0C       0.141000
     38 H10          2.5160     4.4460     2.7880 ha         1 E0C       0.184000
     39 H11          3.1170     3.6580     6.1580 hn         1 E0C       0.468800
     40 H12          5.0410     5.7560     2.1440 ha         1 E0C       0.172000
     41 H13          8.9250     3.9800     2.2470 ha         1 E0C       0.149000
     42 H14          8.5910     3.3780     4.6130 ha         1 E0C       0.147000
     43 H15          7.7240     2.2810     6.1330 h1         1 E0C       0.049700
     44 H16          8.3800     3.8320     6.6740 h1         1 E0C       0.049700
     45 H17          7.2120     2.9650     7.6810 h1         1 E0C       0.049700
@<TRIPOS>BOND
     1    24    25 ar
     2    24    22 ar
     3    25    26 ar
     4    28    27 1
     5    23    22 1
     6    22    21 ar
     7    26    27 1
     8    26    20 ar
     9    21    20 ar
    10     8     7 ar
    11     8     9 ar
    12    20    17 1
    13     7     6 ar
    14     9    10 ar
    15     6    11 ar
    16     6     4 1
    17    19    17 2
    18    17    16 1
    19    17    18 2
    20    10    11 ar
    21    10    15 ar
    22     5     4 2
    23    11    12 ar
    24     4     3 1
    25    16    15 1
    26    15    14 ar
    27    12     3 1
    28    12    13 ar
    29     3     2 1
    30     1     2 1
    31    14    13 ar
    32     1    29 1
    33     1    30 1
    34     1    31 1
    35     2    32 1
    36     2    33 1
    37     7    34 1
    38     8    35 1
    39     9    36 1
    40    13    37 1
    41    14    38 1
    42    16    39 1
    43    21    40 1
    44    24    41 1
    45    25    42 1
    46    28    43 1
    47    28    44 1
    48    28    45 1
@<TRIPOS>SUBSTRUCTURE
     1 E0C         1 TEMP              0 ****  ****    0 ROOT
