@<TRIPOS>MOLECULE
E0D
   43    45     1     0     0
SMALL
bcc


@<TRIPOS>ATOM
      1 OAW          0.0000     0.0000     0.0000 o          1 E0D      -0.889800
      2 CAV          1.3430     0.0000     0.0000 c          1 E0D       0.982600
      3 OAX          1.9460     0.0000     1.0470 o          1 E0D      -0.889800
      4 CAR          2.0970    -0.0010    -1.3050 c3         1 E0D      -0.169700
      5 CAQ          1.7280    -1.2520    -2.1070 c3         1 E0D       0.062000
      6 CAS          3.6020    -0.0030    -1.0240 c3         1 E0D      -0.014400
      7 CAT          4.3680     0.0300    -2.3490 c3         1 E0D      -0.048400
      8 CAU          4.0260    -1.2220    -3.1630 c3         1 E0D       0.039000
      9 NAO          2.5660    -1.3040    -3.3130 n          1 E0D      -0.130800
     10 C            2.0070    -1.4250    -4.5340 c          1 E0D       0.551100
     11 O            0.8010    -1.4920    -4.6440 o          1 E0D      -0.632100
     12 CA           2.8800    -1.4780    -5.7610 c3         1 E0D      -0.143700
     13 N            2.0390    -1.6110    -6.9530 na         1 E0D       0.484600
     14 CAH          1.7310    -2.7800    -7.5460 cc         1 E0D      -0.192100
     15 CAE          1.4480    -0.5550    -7.6190 ca         1 E0D      -0.226200
     16 CAF          1.4520     0.8210    -7.4100 ca         1 E0D      -0.080000
     17 CAA          0.7520     1.6460    -8.2610 ca         1 E0D      -0.099000
     18 CAB          0.0410     1.1220    -9.3310 ca         1 E0D      -0.126000
     19 CAC          0.0260    -0.2380    -9.5540 ca         1 E0D      -0.053000
     20 CAD          0.7290    -1.0840    -8.7010 ca         1 E0D      -0.030800
     21 CAG          0.9240    -2.5460    -8.6390 cd         1 E0D      -0.282400
     22 CAK          0.3890    -3.5140    -9.5240 c          1 E0D       0.666300
     23 OAM         -0.3130    -3.1660   -10.4530 o          1 E0D      -0.602100
     24 CAL          0.6880    -4.9760    -9.3130 c3         1 E0D      -0.095100
     25 H2           1.8390     0.8820    -1.8770 hc         1 E0D       0.028700
     26 H3           0.6840    -1.2050    -2.3930 h1         1 E0D       0.048700
     27 H4           1.9060    -2.1350    -1.5040 h1         1 E0D       0.048700
     28 H5           3.8600     0.8710    -0.4380 hc         1 E0D       0.028200
     29 H6           3.8650    -0.9010    -0.4790 hc         1 E0D       0.028200
     30 H7           5.4320     0.0500    -2.1480 hc         1 E0D       0.007700
     31 H8           4.0830     0.9130    -2.9080 hc         1 E0D       0.007700
     32 H9           4.4870    -1.1540    -4.1410 h1         1 E0D       0.008700
     33 H10          4.3880    -2.1010    -2.6450 h1         1 E0D       0.008700
     34 H11          3.5460    -2.3290    -5.6930 h1         1 E0D       0.046200
     35 H12          3.4620    -0.5680    -5.8300 h1         1 E0D       0.046200
     36 H13          2.0670    -3.7550    -7.2150 h4         1 E0D       0.139000
     37 H14          2.0030     1.2420    -6.5780 ha         1 E0D       0.102000
     38 H15          0.7580     2.7170    -8.0940 ha         1 E0D       0.098000
     39 H16         -0.5050     1.7840    -9.9920 ha         1 E0D       0.097000
     40 H17         -0.5300    -0.6460   -10.3890 ha         1 E0D       0.121000
     41 H18          0.3250    -5.2820    -8.3390 hc         1 E0D       0.018367
     42 H19          1.7580    -5.1370    -9.3660 hc         1 E0D       0.018367
     43 H20          0.1970    -5.5600   -10.0810 hc         1 E0D       0.018367
@<TRIPOS>BOND
     1     1     2 1   
     2     2     3 1   
     3     2     4 1   
     4     4     5 1   
     5     4     6 1   
     6     4    25 1   
     7     5     9 1   
     8     5    26 1   
     9     5    27 1   
    10     6     7 1   
    11     6    28 1   
    12     6    29 1   
    13     7     8 1   
    14     7    30 1   
    15     7    31 1   
    16     8     9 1   
    17     8    32 1   
    18     8    33 1   
    19     9    10 1   
    20    10    11 2   
    21    10    12 1   
    22    12    13 1   
    23    12    34 1   
    24    12    35 1   
    25    13    14 1   
    26    13    15 1   
    27    14    21 2   
    28    14    36 1   
    29    15    16 ar  
    30    15    20 ar  
    31    16    17 ar  
    32    16    37 1   
    33    17    18 ar  
    34    17    38 1   
    35    18    19 ar  
    36    18    39 1   
    37    19    20 ar  
    38    19    40 1   
    39    20    21 1   
    40    21    22 1   
    41    22    23 2   
    42    22    24 1   
    43    24    41 1   
    44    24    42 1   
    45    24    43 1   
@<TRIPOS>SUBSTRUCTURE
     1 E0D         1 TEMP              0 ****  ****    0 ROOT
