@<TRIPOS>MOLECULE
molecule
   70    71     1     0     0
SMALL
bcc


@<TRIPOS>ATOM
      1 C5           0.0000     0.0000     0.0000 c3         1 E0E      -0.091100
      2 C6           1.5300     0.0000     0.0000 c3         1 E0E      -0.079400
      3 C7           2.0400     0.0000     1.4420 c3         1 E0E      -0.104200
      4 C8           3.5480    -0.0000     1.4420 ce         1 E0E       0.037600
      5 O9          13.1710    -3.1900     4.0180 oh         1 E0E      -0.603800
      6 C10         12.6210    -2.7320     5.2540 c3         1 E0E       0.147800
      7 C11         13.4920    -3.2230     6.4120 c3         1 E0E      -0.121100
      8 C12         12.5830    -1.2020     5.2580 c3         1 E0E      -0.121100
      9 C13         11.2020    -3.2780     5.4150 c3         1 E0E      -0.064400
     10 C14         10.3320    -2.7880     4.2560 c3         1 E0E      -0.079400
     11 C15          8.9120    -3.3340     4.4170 c3         1 E0E      -0.085400
     12 C16          8.0420    -2.8430     3.2580 c3         1 E0E      -0.076400
     13 C18          5.7650    -2.9060     2.2780 ca         1 E0E      -0.085300
     14 C19          5.0780    -1.7170     2.3900 ca         1 E0E      -0.090000
     15 C20          5.6740    -3.6550     1.1170 ca         1 E0E      -0.124000
     16 C21          4.8900    -3.2190     0.0640 ca         1 E0E      -0.129000
     17 C22          4.1920    -2.0340     0.1630 ca         1 E0E      -0.126000
     18 C23          4.2830    -1.2690     1.3310 ca         1 E0E      -0.037800
     19 C24          4.2230     1.1660     1.5440 cf         1 E0E      -0.439000
     20 C25          3.5150     2.3860     1.6500 cf         1 E0E      -0.199000
     21 C26          4.1920     3.5530     1.7530 ce         1 E0E       0.006800
     22 C27          5.6670     3.5950     1.7560 ce         1 E0E      -0.137200
     23 C28          6.3900     2.7210     2.4590 c2         1 E0E      -0.112000
     24 C29          6.3210     4.6780     0.9220 c3         1 E0E       0.193300
     25 O30          6.2010     4.3570    -0.4650 oh         1 E0E      -0.603800
     26 C31          5.6090     6.0040     1.2080 c3         1 E0E      -0.099400
     27 C32          4.1190     5.8700     0.8950 c3         1 E0E       0.153100
     28 O33          3.4890     7.1470     1.0240 oh         1 E0E      -0.608800
     29 C34          3.4700     4.8830     1.8630 c3         1 E0E      -0.062200
     30 H1          -0.3610     0.9170     0.4500 hc         1 E0E       0.035700
     31 H2          -0.3610    -0.0680    -1.0190 hc         1 E0E       0.035700
     32 H3          -0.3610    -0.8480     0.5690 hc         1 E0E       0.035700
     33 H4           1.8910     0.8840    -0.5110 hc         1 E0E       0.041700
     34 H5           1.8910    -0.8840    -0.5110 hc         1 E0E       0.041700
     35 H6           1.6790     0.8840     1.9530 hc         1 E0E       0.056700
     36 H7           1.6790    -0.8840     1.9530 hc         1 E0E       0.056700
     37 H8          14.1040    -3.0530     4.0190 ho         1 E0E       0.401000
     38 H9          13.5240    -4.3050     6.4070 hc         1 E0E       0.041533
     39 H10         13.0730    -2.8790     7.3500 hc         1 E0E       0.041533
     40 H11         14.4960    -2.8310     6.3000 hc         1 E0E       0.041533
     41 H12         11.8010    -0.8620     5.9260 hc         1 E0E       0.041533
     42 H13         12.3810    -0.8430     4.2550 hc         1 E0E       0.041533
     43 H14         13.5380    -0.8170     5.5940 hc         1 E0E       0.041533
     44 H15         11.2300    -4.3610     5.4130 hc         1 E0E       0.047700
     45 H16         10.7860    -2.9300     6.3530 hc         1 E0E       0.047700
     46 H17         10.7490    -3.1360     3.3190 hc         1 E0E       0.051700
     47 H18         10.3040    -1.7050     4.2580 hc         1 E0E       0.051700
     48 H19          8.9390    -4.4170     4.4150 hc         1 E0E       0.038700
     49 H20          8.4950    -2.9860     5.3550 hc         1 E0E       0.038700
     50 H21          8.4580    -3.1910     2.3210 hc         1 E0E       0.048200
     51 H22          8.0140    -1.7600     3.2620 hc         1 E0E       0.048200
     52 H23          6.6500    -4.4730     3.4170 hc         1 E0E       0.046200
     53 H24          6.2050    -3.0420     4.3580 hc         1 E0E       0.046200
     54 H25          5.0950    -1.1680     3.3240 ha         1 E0E       0.138000
     55 H26          6.2190    -4.5870     1.0330 ha         1 E0E       0.128000
     56 H27          4.8220    -3.8120    -0.8400 ha         1 E0E       0.127000
     57 H28          3.5790    -1.6950    -0.6620 ha         1 E0E       0.128000
     58 H29          3.7570     1.6780     0.7100 ha         1 E0E       0.333000
     59 H30          2.4320     2.3860     1.6510 ha         1 E0E       0.109000
     60 H31          5.8950     1.9570     3.0460 ha         1 E0E       0.128000
     61 H32          7.4720     2.7750     2.4420 ha         1 E0E       0.128000
     62 H33          7.3670     4.7630     1.1930 h1         1 E0E       0.039700
     63 H34          7.0560     4.3560    -0.8620 ho         1 E0E       0.403000
     64 H35          5.7340     6.2600     2.2540 hc         1 E0E       0.057700
     65 H36          6.0370     6.7830     0.5880 hc         1 E0E       0.057700
     66 H37          3.9990     5.5060    -0.1190 h1         1 E0E       0.051700
     67 H38          3.0370     7.3570     0.2230 ho         1 E0E       0.402000
     68 H39          2.4270     4.7520     1.6030 hc         1 E0E       0.062200
     69 H40          3.5550     5.2590     2.8750 hc         1 E0E       0.062200
     70 C17          6.6220    -3.3900     3.4200 c3         1 E0E      -0.035100
@<TRIPOS>BOND
     1     7     6 1
     2     8     6 1
     3     6     9 1
     4     6     5 1
     5     9    10 1
     6    10    11 1
     7    11    12 1
     8     1     2 1
     9    12    70 1
    10    23    22 2
    11     2     3 1
    12    29    21 1
    13    29    27 1
    14    22    21 1
    15    22    24 1
    16    26    27 1
    17    26    24 1
    18    21    20 2
    19    70    13 1
    20    25    24 1
    21    20    19 1
    22    27    28 1
    23    14    13 ar
    24    14    18 ar
    25    13    15 ar
    26    19     4 2
    27     4     3 1
    28     4    18 1
    29    18    17 ar
    30    15    16 ar
    31    17    16 ar
    32     1    30 1
    33     1    31 1
    34     1    32 1
    35     2    33 1
    36     2    34 1
    37     3    35 1
    38     3    36 1
    39     5    37 1
    40     7    38 1
    41     7    39 1
    42     7    40 1
    43     8    41 1
    44     8    42 1
    45     8    43 1
    46     9    44 1
    47     9    45 1
    48    10    46 1
    49    10    47 1
    50    11    48 1
    51    11    49 1
    52    12    50 1
    53    12    51 1
    54    70    52 1
    55    70    53 1
    56    14    54 1
    57    15    55 1
    58    16    56 1
    59    17    57 1
    60    19    58 1
    61    20    59 1
    62    23    60 1
    63    23    61 1
    64    24    62 1
    65    25    63 1
    66    26    64 1
    67    26    65 1
    68    27    66 1
    69    28    67 1
    70    29    68 1
    71    29    69 1
@<TRIPOS>SUBSTRUCTURE
     1 E0E         1 TEMP              0 ****  ****    0 ROOT
