@<TRIPOS>MOLECULE
molecule
   61    64     1     0     0
SMALL
bcc


@<TRIPOS>ATOM
      1 C8           0.0000     0.0000     0.0000 c3         1 E0G       0.212500
      2 C5          -1.7480    -0.5080    -1.6730 ca         1 E0G       0.309600
      3 C6          -2.2710    -0.3990    -2.9720 ca         1 E0G      -0.323600
      4 N1          -2.0310     0.4580    -5.2470 nz         1 E0G      -0.704400
      5 C2          -4.2720    -1.5100    -2.2670 ca         1 E0G      -0.179000
      6 O2          -0.3380     0.5990    -3.8150 o          1 E0G      -0.510100
      7 N2          -0.4890     0.0010    -1.3810 nu         1 E0G      -0.755600
      8 N3          -4.5150    -2.2400     0.0220 na         1 E0G       0.147300
      9 C3          -3.7590    -1.6210    -0.9780 ca         1 E0G       0.146800
     10 C4          -2.5000    -1.1210    -0.6810 ca         1 E0G      -0.202000
     11 N4          -4.6490    -1.7940     1.3450 nc         1 E0G      -0.462800
     12 C10         -0.0000     1.2490     2.1640 c3         1 E0G      -0.148400
     13 C11          1.5300     1.2490     2.1640 c3         1 E0G       0.207100
     14 C12          2.0400     0.0000     1.4430 c3         1 E0G      -0.148400
     15 C13          1.5300     0.0000     0.0000 c3         1 E0G      -0.077900
     16 C14         -5.4360    -2.6120     1.9970 cd         1 E0G       0.327600
     17 C15         -5.8360    -3.6170     1.1070 cd         1 E0G      -0.337900
     18 C16         -5.2380    -3.3540    -0.1230 cc         1 E0G      -0.020600
     19 C19         -7.1310    -5.4960     0.0250 c3         1 E0G      -0.162400
     20 C1          -3.5420    -0.9100    -3.2520 ca         1 E0G      -0.057000
     21 F1          -5.3340    -1.3010     3.9730 f          1 E0G      -0.199633
     22 F2          -7.2350    -2.4920     3.5410 f          1 E0G      -0.199633
     23 F3          -5.3230    -3.5780     4.1620 f          1 E0G      -0.199633
     24 O3           2.0070     1.2480     3.5120 oh         1 E0G      -0.582800
     25 C7          -1.4830     0.2500    -4.0340 c          1 E0G       0.511700
     26 C9          -0.5100     1.2490     0.7220 c3         1 E0G      -0.077900
     27 C17         -5.4290    -4.2280    -1.3350 c3         1 E0G      -0.014100
     28 C18         -5.9060    -5.6140    -0.8870 c3         1 E0G      -0.060000
     29 C20         -6.7160    -4.7800     1.3010 c          1 E0G       0.602700
     30 C22         -4.7770    -6.3130    -0.1260 c3         1 E0G      -0.088600
     31 C23         -5.8390    -2.4940     3.4450 c3         1 E0G       0.620600
     32 H1          -0.3590    -0.8830     0.5140 h1         1 E0G       0.085700
     33 H2          -3.0280     0.3830    -5.2790 hn         1 E0G       0.490133
     34 H3          -1.6820     1.3780    -5.0640 hn         1 E0G       0.490133
     35 H4          -5.2560    -1.9040    -2.4910 ha         1 E0G       0.165000
     36 H5           0.0750     0.3880    -2.1120 hn         1 E0G       0.475800
     37 H6          -2.1030    -1.2100     0.3240 ha         1 E0G       0.193000
     38 H7          -0.3600     2.1350     2.6730 hc         1 E0G       0.079450
     39 H8          -0.3600     0.3630     2.6730 hc         1 E0G       0.079450
     40 H9           1.8890     2.1320     1.6500 h1         1 E0G       0.007700
     41 H10          2.9310    -0.5410     1.7380 hc         1 E0G       0.079450
     42 H11          2.4310     0.9680     1.1540 hc         1 E0G       0.079450
     43 H12          1.8900    -0.8860    -0.5090 hc         1 E0G       0.048700
     44 H13          1.8900     0.8860    -0.5090 hc         1 E0G       0.048700
     45 H14         -7.9040    -4.9250    -0.4770 hc         1 E0G       0.081200
     46 H15         -7.5010    -6.4850     0.2670 hc         1 E0G       0.081200
     47 H16         -5.4090    -6.5280    -2.7680 hc         1 E0G       0.045867
     48 H17         -6.5890    -7.4310    -1.8080 hc         1 E0G       0.045867
     49 H18         -7.0790    -5.9560    -2.6540 hc         1 E0G       0.045867
     50 H19         -3.9490    -0.8270    -4.2530 ha         1 E0G       0.114000
     51 H20          2.5780     1.9860     3.6430 ho         1 E0G       0.409000
     52 H21         -0.1470     2.1330     0.2120 hc         1 E0G       0.048700
     53 H22         -1.5930     1.2460     0.7230 hc         1 E0G       0.048700
     54 H23         -4.4880    -4.3230    -1.8630 hc         1 E0G       0.062700
     55 H24         -6.1730    -3.7840    -1.9860 hc         1 E0G       0.062700
     56 H25         -4.6480    -5.8420     0.8410 hc         1 E0G       0.045867
     57 H26         -3.8570    -6.2350    -0.6920 hc         1 E0G       0.045867
     58 H27         -5.0280    -7.3580     0.0120 hc         1 E0G       0.045867
     59 C21         -6.2730    -6.4430    -2.1190 c3         1 E0G      -0.088600
     60 O1          -7.0810    -5.1430     2.3990 o          1 E0G      -0.485100
     61 H131        -1.5780    -0.0190    -6.0020 hn         1 E0G       0.490133
@<TRIPOS>BOND
     1     6    25 2
     2     4    25 1
     3    25     3 1
     4    26    12 1
     5    26     1 1
     6    13    12 1
     7    13    24 1
     8    13    14 1
     9     7     1 1
    10     7     2 1
    11    15    14 1
    12    15     1 1
    13     3     2 ar
    14     3    20 ar
    15     2    10 ar
    16    20     5 ar
    17    10     9 ar
    18     5     9 ar
    19     9     8 1
    20     8    18 1
    21     8    11 1
    22    27    18 1
    23    27    28 1
    24    59    28 1
    25    30    28 1
    26    18    17 2
    27    11    16 2
    28    28    19 1
    29    17    16 1
    30    17    29 1
    31    16    31 1
    32    19    29 1
    33    21    31 1
    34    29    60 2
    35    31    23 1
    36    31    22 1
    37     1    32 1
    38     4    33 1
    39     4    34 1
    40     5    35 1
    41     7    36 1
    42    10    37 1
    43    12    38 1
    44    12    39 1
    45    13    40 1
    46    14    41 1
    47    14    42 1
    48    15    43 1
    49    15    44 1
    50    19    45 1
    51    19    46 1
    52    59    47 1
    53    59    48 1
    54    59    49 1
    55    20    50 1
    56    24    51 1
    57    26    52 1
    58    26    53 1
    59    27    54 1
    60    27    55 1
    61    30    56 1
    62    30    57 1
    63    30    58 1
    64    61     4 1
@<TRIPOS>SUBSTRUCTURE
     1 E0G         1 TEMP              0 ****  ****    0 ROOT
