@<TRIPOS>MOLECULE
E0G
   61    64     1     0     0
SMALL
bcc


@<TRIPOS>ATOM
      1 C8           0.0000     0.0000     0.0000 c3         1 E0G       0.092500
      2 C5          -1.7480    -0.5080    -1.6730 ca         1 E0G       0.168600
      3 C6          -2.2710    -0.3990    -2.9720 ca         1 E0G      -0.340600
      4 N1          -2.0310     0.4580    -5.2470 nz         1 E0G       0.138600
      5 C2          -4.2720    -1.5100    -2.2670 ca         1 E0G      -0.148000
      6 O2          -0.3380     0.5990    -3.8150 o          1 E0G      -0.539100
      7 N2          -0.4890     0.0010    -1.3810 nu         1 E0G      -0.323600
      8 N3          -4.5150    -2.2400     0.0220 na         1 E0G       0.631300
      9 C3          -3.7590    -1.6210    -0.9780 ca         1 E0G      -0.026200
     10 C4          -2.5000    -1.1210    -0.6810 ca         1 E0G      -0.171000
     11 N4          -4.6490    -1.7940     1.3450 nc         1 E0G      -0.611800
     12 C10         -0.0000     1.2490     2.1640 c3         1 E0G      -0.116900
     13 C11          1.5300     1.2490     2.1640 c3         1 E0G       0.273100
     14 C12          2.0400     0.0000     1.4430 c3         1 E0G      -0.116900
     15 C13          1.5300     0.0000     0.0000 c3         1 E0G      -0.006900
     16 C14         -5.4360    -2.6120     1.9970 cd         1 E0G       0.347600
     17 C15         -5.8360    -3.6170     1.1070 cd         1 E0G      -0.337900
     18 C16         -5.2380    -3.3540    -0.1230 cc         1 E0G      -0.212600
     19 C19         -7.1310    -5.4960     0.0250 c3         1 E0G      -0.106400
     20 C1          -3.5420    -0.9100    -3.2520 ca         1 E0G      -0.024000
     21 F1          -5.3340    -1.3010     3.9730 f          1 E0G      -0.193967
     22 F2          -7.2350    -2.4920     3.5410 f          1 E0G      -0.193967
     23 F3          -5.3230    -3.5780     4.1620 f          1 E0G      -0.193967
     24 O3           2.0070     1.2480     3.5120 oh         1 E0G      -0.566800
     25 C7          -1.4830     0.2500    -4.0340 c          1 E0G       0.378700
     26 C9          -0.5100     1.2490     0.7220 c3         1 E0G      -0.006900
     27 C17         -5.4290    -4.2280    -1.3350 c3         1 E0G       0.066900
     28 C18         -5.9060    -5.6140    -0.8870 c3         1 E0G      -0.062000
     29 C20         -6.7160    -4.7800     1.3010 c          1 E0G       0.654700
     30 C22         -4.7770    -6.3130    -0.1260 c3         1 E0G      -0.000100
     31 C23         -5.8390    -2.4940     3.4450 c3         1 E0G       0.578600
     32 H1          -0.3590    -0.8830     0.5140 h1         1 E0G       0.066700
     33 H2          -3.0280     0.3830    -5.2790 hn         1 E0G       0.265467
     34 H3          -1.6820     1.3780    -5.0640 hn         1 E0G       0.265467
     35 H4          -5.2560    -1.9040    -2.4910 ha         1 E0G       0.140000
     36 H5           0.0750     0.3880    -2.1120 hn         1 E0G       0.342800
     37 H6          -2.1030    -1.2100     0.3240 ha         1 E0G       0.168000
     38 H7          -0.3600     2.1350     2.6730 hc         1 E0G       0.050950
     39 H8          -0.3600     0.3630     2.6730 hc         1 E0G       0.050950
     40 H9           1.8890     2.1320     1.6500 h1         1 E0G      -0.022300
     41 H10          2.9310    -0.5410     1.7380 hc         1 E0G       0.050950
     42 H11          2.4310     0.9680     1.1540 hc         1 E0G       0.050950
     43 H12          1.8900    -0.8860    -0.5090 hc         1 E0G       0.018450
     44 H13          1.8900     0.8860    -0.5090 hc         1 E0G       0.018450
     45 H14         -7.9040    -4.9250    -0.4770 hc         1 E0G       0.048700
     46 H15         -7.5010    -6.4850     0.2670 hc         1 E0G       0.048700
     47 H16         -5.4090    -6.5280    -2.7680 hc         1 E0G       0.013700
     48 H17         -6.5890    -7.4310    -1.8080 hc         1 E0G       0.013700
     49 H18         -7.0790    -5.9560    -2.6540 hc         1 E0G       0.013700
     50 H19         -3.9490    -0.8270    -4.2530 ha         1 E0G       0.084000
     51 H20          2.5780     1.9860     3.6430 ho         1 E0G       0.394000
     52 H21         -0.1470     2.1330     0.2120 hc         1 E0G       0.018450
     53 H22         -1.5930     1.2460     0.7230 hc         1 E0G       0.018450
     54 H23         -4.4880    -4.3230    -1.8630 hc         1 E0G       0.027700
     55 H24         -6.1730    -3.7840    -1.9860 hc         1 E0G       0.027700
     56 H25         -4.6480    -5.8420     0.8410 hc         1 E0G       0.013700
     57 H26         -3.8570    -6.2350    -0.6920 hc         1 E0G       0.013700
     58 H27         -5.0280    -7.3580     0.0120 hc         1 E0G       0.013700
     59 C21         -6.2730    -6.4430    -2.1190 c3         1 E0G      -0.000100
     60 O1          -7.0810    -5.1430     2.3990 o          1 E0G      -0.515100
     61 H131        -1.5780    -0.0190    -6.0020 hn         1 E0G       0.265467
@<TRIPOS>BOND
     1     1     7 1   
     2     1    15 1   
     3     1    26 1   
     4     1    32 1   
     5     2     3 ar  
     6     2     7 1   
     7     2    10 ar  
     8     3    20 ar  
     9     3    25 1   
    10     4    25 1   
    11     4    33 1   
    12     4    34 1   
    13     4    61 1   
    14     5     9 ar  
    15     5    20 ar  
    16     5    35 1   
    17     6    25 2   
    18     7    36 1   
    19     8     9 1   
    20     8    11 1   
    21     8    18 1   
    22     9    10 ar  
    23    10    37 1   
    24    11    16 2   
    25    12    13 1   
    26    12    26 1   
    27    12    38 1   
    28    12    39 1   
    29    13    14 1   
    30    13    24 1   
    31    13    40 1   
    32    14    15 1   
    33    14    41 1   
    34    14    42 1   
    35    15    43 1   
    36    15    44 1   
    37    16    17 1   
    38    16    31 1   
    39    17    18 2   
    40    17    29 1   
    41    18    27 1   
    42    19    28 1   
    43    19    29 1   
    44    19    45 1   
    45    19    46 1   
    46    20    50 1   
    47    21    31 1   
    48    22    31 1   
    49    23    31 1   
    50    24    51 1   
    51    26    52 1   
    52    26    53 1   
    53    27    28 1   
    54    27    54 1   
    55    27    55 1   
    56    28    30 1   
    57    28    59 1   
    58    29    60 2   
    59    30    56 1   
    60    30    57 1   
    61    30    58 1   
    62    47    59 1   
    63    48    59 1   
    64    49    59 1   
@<TRIPOS>SUBSTRUCTURE
     1 E0G         1 TEMP              0 ****  ****    0 ROOT
