@<TRIPOS>MOLECULE
molecule
   32    33     1     0     0
SMALL
bcc


@<TRIPOS>ATOM
      1 C4           0.0000     0.0000     0.0000 ca         1 E0J       0.111100
      2 C1           3.5850    -0.0010     1.1950 c3         1 E0J      -0.036800
      3 C2           2.0780     0.0000     1.1960 ca         1 E0J      -0.073300
      4 C3           1.3870     0.0000     0.0000 ca         1 E0J      -0.125000
      5 C5          -0.6930     0.0020     1.2010 ca         1 E0J      -0.188000
      6 C6          -0.0020     0.0020     2.3970 ca         1 E0J      -0.177000
      7 C7           1.3850     0.0010     2.3960 ca         1 E0J       0.105100
      8 C9          -2.1080     0.0120    -1.1020 c3         1 E0J       0.129700
      9 C11          1.2880     0.0030     4.7730 c3         1 E0J       0.094100
     10 C13          3.5740     0.0030     5.7780 ca         1 E0J      -0.226300
     11 C12          2.2050     0.0040     5.9680 ca         1 E0J       0.419600
     12 C15          3.8360    -0.0080     8.1450 ca         1 E0J      -0.254300
     13 C14          4.4100    -0.0030     6.8830 ca         1 E0J      -0.095000
     14 O8          -0.6810     0.0060    -1.1770 os         1 E0J      -0.330900
     15 O10          2.0650     0.0020     3.5750 os         1 E0J      -0.336900
     16 C16          2.4590     0.0050     8.2570 ca         1 E0J       0.423200
     17 N17          1.6940     0.0050     7.1840 nb         1 E0J      -0.694000
     18 H1           3.9460    -0.0030     0.1740 hc         1 E0J       0.046033
     19 H2           3.9470     0.8840     1.7050 hc         1 E0J       0.046033
     20 H3           3.9460    -0.8850     1.7070 hc         1 E0J       0.046033
     21 H4           1.9280    -0.0020    -0.9380 ha         1 E0J       0.149000
     22 H5          -1.7770     0.0020     1.2010 ha         1 E0J       0.136000
     23 H6          -0.5430     0.0030     3.3360 ha         1 E0J       0.138000
     24 H7          -2.4450    -0.8720    -0.5750 h1         1 E0J       0.040033
     25 H8          -2.5220     0.0170    -2.1020 h1         1 E0J       0.040033
     26 H9          -2.4370     0.8970    -0.5700 h1         1 E0J       0.040033
     27 H10          0.6620    -0.8810     4.7980 h1         1 E0J       0.057700
     28 H11          0.6630     0.8880     4.7970 h1         1 E0J       0.057700
     29 H13          4.4590    -0.0100     9.0310 ha         1 E0J       0.138000
     30 H14          5.4870    -0.0080     6.7640 ha         1 E0J       0.139000
     31 H15          2.0020     0.0040     9.2400 h4         1 E0J       0.024100
     32 H12          3.9890     0.0070     4.7770 ha         1 E0J       0.158000
@<TRIPOS>BOND
     1     2     3 1
     2     4     3 ar
     3     4     1 ar
     4     3     7 ar
     5     8    14 1
     6    14     1 1
     7     1     5 ar
     8    13    12 ar
     9    13    10 ar
    10     7    15 1
    11     7     6 ar
    12    15     9 1
    13    12    16 ar
    14    10    11 ar
    15    16    17 ar
    16    11    17 ar
    17    11     9 1
    18     5     6 ar
    19     2    18 1
    20     2    19 1
    21     2    20 1
    22     4    21 1
    23     5    22 1
    24     6    23 1
    25     8    24 1
    26     8    25 1
    27     8    26 1
    28     9    27 1
    29     9    28 1
    30    10    32 1
    31    12    29 1
    32    13    30 1
    33    16    31 1
@<TRIPOS>SUBSTRUCTURE
     1 E0J         1 TEMP              0 ****  ****    0 ROOT
