@<TRIPOS>MOLECULE
E0M
   38    41     1     0     0
SMALL
bcc


@<TRIPOS>ATOM
      1 C01          0.0000     0.0000     0.0000 c3         1 E0M       0.005400
      2 C02          1.5300     0.0000     0.0000 c3         1 E0M       0.006600
      3 C03          2.0400     0.0000     1.4430 c3         1 E0M       0.005400
      4 C04          2.0330    -1.2300    -0.7100 ca         1 E0M      -0.123300
      5 C05          1.6970    -2.4890    -0.2370 ca         1 E0M      -0.035000
      6 C06          2.1460    -3.6250    -0.8740 ca         1 E0M      -0.134000
      7 C07          2.9460    -3.5210    -2.0080 ca         1 E0M       0.167100
      8 C09          4.3860    -4.6090    -3.5240 ca         1 E0M       0.680600
      9 C11          5.9760    -5.7740    -4.7430 ca         1 E0M       0.615200
     10 C13          6.4430    -4.5990    -5.3630 ca         1 E0M      -0.320800
     11 C14          7.5440    -4.6550    -6.3480 cc         1 E0M       0.322000
     12 C19          5.8440    -3.3840    -5.0360 ca         1 E0M       0.037000
     13 C20          4.8110    -3.3960    -4.0980 ca         1 E0M      -0.373900
     14 C21          4.1430    -2.1460    -3.6830 c          1 E0M       0.670300
     15 C23          3.2850    -2.2450    -2.4830 ca         1 E0M      -0.251600
     16 C24          2.8200    -1.1010    -1.8340 ca         1 E0M       0.002000
     17 N10          4.9880    -5.7420    -3.8660 nb         1 E0M      -0.619000
     18 N12          6.5670    -6.9840    -5.0530 nv         1 E0M      -0.644500
     19 N15          8.1650    -3.5940    -6.9230 na         1 E0M       0.286600
     20 N16          9.1350    -4.1530    -7.7730 nc         1 E0M      -0.393800
     21 N17          9.0400    -5.4330    -7.6600 nd         1 E0M       0.033000
     22 N18          8.1120    -5.7410    -6.8280 nd         1 E0M      -0.388000
     23 O08          3.3770    -4.6350    -2.6330 os         1 E0M      -0.296400
     24 O22          4.2970    -1.1000    -4.2860 o          1 E0M      -0.565100
     25 H1          -0.3610    -0.2020    -1.0010 hc         1 E0M       0.006033
     26 H2          -0.3610     0.9680     0.3260 hc         1 E0M       0.006033
     27 H3          -0.3610    -0.7660     0.6750 hc         1 E0M       0.006033
     28 H4           1.8910     0.8850    -0.5100 hc         1 E0M       0.031700
     29 H5           3.1050    -0.1990     1.4500 hc         1 E0M       0.006033
     30 H6           1.5250    -0.7680     2.0080 hc         1 E0M       0.006033
     31 H7           1.8510     0.9670     1.8930 hc         1 E0M       0.006033
     32 H8           1.0740    -2.5810     0.6450 ha         1 E0M       0.114000
     33 H9           1.8750    -4.6020    -0.4910 ha         1 E0M       0.124000
     34 H10          6.1740    -2.4580    -5.4910 ha         1 E0M       0.118000
     35 H11          3.1770    -0.1240    -2.1370 ha         1 E0M       0.126000
     36 H12          7.3490    -7.3090    -4.5200 hn         1 E0M       0.293800
     37 H13          6.1790    -7.5590    -5.7750 hn         1 E0M       0.293800
     38 H14          7.9730    -2.6230    -6.7750 hn         1 E0M       0.175700
@<TRIPOS>BOND
     1     1     2 1   
     2     1    25 1   
     3     1    26 1   
     4     1    27 1   
     5     2     3 1   
     6     2     4 1   
     7     2    28 1   
     8     3    29 1   
     9     3    30 1   
    10     3    31 1   
    11     4     5 ar  
    12     4    16 ar  
    13     5     6 ar  
    14     5    32 1   
    15     6     7 ar  
    16     6    33 1   
    17     7    15 ar  
    18     7    23 1   
    19     8    13 ar  
    20     8    17 ar  
    21     8    23 1   
    22     9    10 ar  
    23     9    17 ar  
    24     9    18 1   
    25    10    11 1   
    26    10    12 ar  
    27    11    19 1   
    28    11    22 2   
    29    12    13 ar  
    30    12    34 1   
    31    13    14 1   
    32    14    15 1   
    33    14    24 2   
    34    15    16 ar  
    35    16    35 1   
    36    18    36 1   
    37    18    37 1   
    38    19    20 1   
    39    19    38 1   
    40    20    21 2   
    41    21    22 1   
@<TRIPOS>SUBSTRUCTURE
     1 E0M         1 TEMP              0 ****  ****    0 ROOT
