@<TRIPOS>MOLECULE
E0P
   42    44     1     0     0
SMALL
bcc


@<TRIPOS>ATOM
      1 C01          0.0000     0.0000     0.0000 c3         1 E0P      -0.004100
      2 C02          1.5300     0.0000     0.0000 c3         1 E0P       0.228400
      3 C04          3.3510     0.0010     1.5450 c          1 E0P       0.753700
      4 C06          3.9140    -0.0000     2.9040 ca         1 E0P      -0.399900
      5 C07          3.0820     0.1240     4.0190 ca         1 E0P       0.129000
      6 C08          3.6740     0.1200     5.2800 ca         1 E0P      -0.446900
      7 C09          2.8580     0.2350     6.5050 c          1 E0P       0.676300
      8 C11          3.5560    -0.0730     7.7740 ca         1 E0P      -0.244600
      9 C12          2.8460    -0.2610     8.9570 ca         1 E0P      -0.003000
     10 C13          3.5260    -0.5530    10.1200 ca         1 E0P      -0.125300
     11 C14          2.7660    -0.7570    11.4060 c3         1 E0P       0.007600
     12 C15          3.0330    -2.1660    11.9370 c3         1 E0P       0.004900
     13 C16          3.2270     0.2750    12.4380 c3         1 E0P       0.004900
     14 C17          4.9080    -0.6600    10.1080 ca         1 E0P      -0.040000
     15 C18          5.6210    -0.4750     8.9420 ca         1 E0P      -0.136000
     16 C19          4.9550    -0.1760     7.7570 ca         1 E0P       0.166100
     17 C21          5.0720     0.0020     5.4090 ca         1 E0P       0.725600
     18 C23          5.3040    -0.1300     3.1060 ca         1 E0P       0.605200
     19 N22          5.8240    -0.1190     4.3210 nb         1 E0P      -0.691000
     20 N24          6.1360    -0.2670     2.0160 nv         1 E0P      -0.504500
     21 O03          2.0140     0.0000     1.3680 os         1 E0P      -0.410900
     22 O05          4.0910     0.0010     0.5800 o          1 E0P      -0.621000
     23 O10          1.6870     0.5650     6.4740 o          1 E0P      -0.569100
     24 O20          5.6550     0.0160     6.6210 os         1 E0P      -0.301400
     25 H1          -0.3610     0.8800     0.5180 hc         1 E0P       0.011700
     26 H2          -0.3610     0.0090    -1.0210 hc         1 E0P       0.011700
     27 H3          -0.3610    -0.8890     0.5030 hc         1 E0P       0.011700
     28 H4           1.8910    -0.8840    -0.5110 h1         1 E0P       0.008700
     29 H5           1.8900     0.8850    -0.5110 h1         1 E0P       0.008700
     30 H6           2.0150    -0.0400     3.9210 ha         1 E0P       0.133000
     31 H7           1.7820    -0.0590     8.9880 ha         1 E0P       0.127000
     32 H8           1.7060    -0.6350    11.2210 hc         1 E0P       0.031700
     33 H9           2.8940    -2.8850    11.1390 hc         1 E0P       0.005533
     34 H10          2.3440    -2.3840    12.7440 hc         1 E0P       0.005533
     35 H11          4.0510    -2.2270    12.3040 hc         1 E0P       0.005533
     36 H12          4.2280     0.0300    12.7720 hc         1 E0P       0.005533
     37 H13          2.5510     0.2640    13.2850 hc         1 E0P       0.005533
     38 H14          3.2260     1.2600    11.9890 hc         1 E0P       0.005533
     39 H15          5.4350    -0.8900    11.0260 ha         1 E0P       0.112000
     40 H16          6.7000    -0.5610     8.9490 ha         1 E0P       0.121000
     41 H17          5.8320    -0.7900     1.2190 hn         1 E0P       0.292300
     42 H18          7.0710     0.0880     2.0550 hn         1 E0P       0.292300
@<TRIPOS>BOND
     1     1     2 1   
     2     1    25 1   
     3     1    26 1   
     4     1    27 1   
     5     2    21 1   
     6     2    28 1   
     7     2    29 1   
     8     3     4 1   
     9     3    21 1   
    10     3    22 2   
    11     4     5 ar  
    12     4    18 ar  
    13     5     6 ar  
    14     5    30 1   
    15     6     7 1   
    16     6    17 ar  
    17     7     8 1   
    18     7    23 2   
    19     8     9 ar  
    20     8    16 ar  
    21     9    10 ar  
    22     9    31 1   
    23    10    11 1   
    24    10    14 ar  
    25    11    12 1   
    26    11    13 1   
    27    11    32 1   
    28    12    33 1   
    29    12    34 1   
    30    12    35 1   
    31    13    36 1   
    32    13    37 1   
    33    13    38 1   
    34    14    15 ar  
    35    14    39 1   
    36    15    16 ar  
    37    15    40 1   
    38    16    24 1   
    39    17    19 ar  
    40    17    24 1   
    41    18    19 ar  
    42    18    20 1   
    43    20    41 1   
    44    20    42 1   
@<TRIPOS>SUBSTRUCTURE
     1 E0P         1 TEMP              0 ****  ****    0 ROOT
