@<TRIPOS>MOLECULE
molecule
   42    44     1     0     0
SMALL
bcc


@<TRIPOS>ATOM
      1 C01          0.0000     0.0000     0.0000 c3         1 E0P      -0.097100
      2 C02          1.5300     0.0000     0.0000 c3         1 E0P       0.148400
      3 C04          3.3510     0.0010     1.5450 c          1 E0P       0.672700
      4 C06          3.9140    -0.0000     2.9040 ca         1 E0P      -0.363900
      5 C07          3.0820     0.1240     4.0190 ca         1 E0P       0.079000
      6 C08          3.6740     0.1200     5.2800 ca         1 E0P      -0.419900
      7 C09          2.8580     0.2350     6.5050 c          1 E0P       0.606300
      8 C11          3.5560    -0.0730     7.7740 ca         1 E0P      -0.224600
      9 C12          2.8460    -0.2610     8.9570 ca         1 E0P      -0.042000
     10 C13          3.5260    -0.5530    10.1200 ca         1 E0P      -0.108300
     11 C14          2.7660    -0.7570    11.4060 c3         1 E0P      -0.028400
     12 C15          3.0330    -2.1660    11.9370 c3         1 E0P      -0.086100
     13 C16          3.2270     0.2750    12.4380 c3         1 E0P      -0.086100
     14 C17          4.9080    -0.6600    10.1080 ca         1 E0P      -0.072000
     15 C18          5.6210    -0.4750     8.9420 ca         1 E0P      -0.147000
     16 C19          4.9550    -0.1760     7.7570 ca         1 E0P       0.160100
     17 C21          5.0720     0.0020     5.4090 ca         1 E0P       0.766600
     18 C23          5.3040    -0.1300     3.1060 ca         1 E0P       0.806200
     19 N22          5.8240    -0.1190     4.3210 nb         1 E0P      -0.795000
     20 N24          6.1360    -0.2670     2.0160 nv         1 E0P      -0.986500
     21 O03          2.0140     0.0000     1.3680 os         1 E0P      -0.426900
     22 O05          4.0910     0.0010     0.5800 o          1 E0P      -0.575000
     23 O10          1.6870     0.5650     6.4740 o          1 E0P      -0.531100
     24 O20          5.6550     0.0160     6.6210 os         1 E0P      -0.327400
     25 H1          -0.3610     0.8800     0.5180 hc         1 E0P       0.048700
     26 H2          -0.3610     0.0090    -1.0210 hc         1 E0P       0.048700
     27 H3          -0.3610    -0.8890     0.5030 hc         1 E0P       0.048700
     28 H4           1.8910    -0.8840    -0.5110 h1         1 E0P       0.049200
     29 H5           1.8900     0.8850    -0.5110 h1         1 E0P       0.049200
     30 H6           2.0150    -0.0400     3.9210 ha         1 E0P       0.176000
     31 H7           1.7820    -0.0590     8.9880 ha         1 E0P       0.159000
     32 H8           1.7060    -0.6350    11.2210 hc         1 E0P       0.059700
     33 H9           2.8940    -2.8850    11.1390 hc         1 E0P       0.038033
     34 H10          2.3440    -2.3840    12.7440 hc         1 E0P       0.038033
     35 H11          4.0510    -2.2270    12.3040 hc         1 E0P       0.038033
     36 H12          4.2280     0.0300    12.7720 hc         1 E0P       0.038033
     37 H13          2.5510     0.2640    13.2850 hc         1 E0P       0.038033
     38 H14          3.2260     1.2600    11.9890 hc         1 E0P       0.038033
     39 H15          5.4350    -0.8900    11.0260 ha         1 E0P       0.143000
     40 H16          6.7000    -0.5610     8.9490 ha         1 E0P       0.152000
     41 H17          5.8320    -0.7900     1.2190 hn         1 E0P       0.459300
     42 H18          7.0710     0.0880     2.0550 hn         1 E0P       0.459300
@<TRIPOS>BOND
     1    22     3 2
     2     1     2 1
     3     2    21 1
     4    20    18 1
     5     3    21 1
     6     3     4 1
     7    18     4 ar
     8    18    19 ar
     9     4     5 ar
    10    19    17 ar
    11     5     6 ar
    12    17     6 ar
    13    17    24 1
    14     6     7 1
    15    24    16 1
    16     7    23 2
    17     7     8 1
    18    16     8 ar
    19    16    15 ar
    20     8     9 ar
    21    15    14 ar
    22     9    10 ar
    23    14    10 ar
    24    10    11 1
    25    11    13 1
    26    11    12 1
    27     1    25 1
    28     1    26 1
    29     1    27 1
    30     2    28 1
    31     2    29 1
    32     5    30 1
    33     9    31 1
    34    11    32 1
    35    12    33 1
    36    12    34 1
    37    12    35 1
    38    13    36 1
    39    13    37 1
    40    13    38 1
    41    14    39 1
    42    15    40 1
    43    20    41 1
    44    20    42 1
@<TRIPOS>SUBSTRUCTURE
     1 E0P         1 TEMP              0 ****  ****    0 ROOT
