@<TRIPOS>MOLECULE
molecule
   42    45     1     0     0
SMALL
bcc


@<TRIPOS>ATOM
      1 C01          0.0000     0.0000     0.0000 c3         1 E0S      -0.086600
      2 C02          1.5300     0.0000     0.0000 c3         1 E0S      -0.030400
      3 C03          2.0400     0.0000     1.4420 c3         1 E0S      -0.086600
      4 C04          2.0320    -1.2290    -0.7120 ca         1 E0S      -0.104300
      5 C05          1.6970    -2.4890    -0.2380 ca         1 E0S      -0.068000
      6 C06          2.1450    -3.6250    -0.8760 ca         1 E0S      -0.145000
      7 C07          2.9450    -3.5200    -2.0110 ca         1 E0S       0.157100
      8 C09          4.3860    -4.6080    -3.5260 ca         1 E0S       0.742600
      9 C11          5.9760    -5.7760    -4.7440 ca         1 E0S       0.813200
     10 C13          6.4440    -4.5990    -5.3640 ca         1 E0S      -0.338900
     11 C14          5.8430    -3.3810    -5.0360 ca         1 E0S       0.026000
     12 C15          4.8110    -3.3940    -4.1000 ca         1 E0S      -0.369900
     13 C16          4.1430    -2.1430    -3.6850 c          1 E0S       0.601300
     14 C18          3.2840    -2.2430    -2.4830 ca         1 E0S      -0.228600
     15 C19          2.8190    -1.1010    -1.8360 ca         1 E0S      -0.039000
     16 C20          7.5430    -4.6530    -6.3440 c          1 E0S       0.703700
     17 C23          9.0910    -3.5630    -7.7680 cc         1 E0S       0.533400
     18 N10          4.9870    -5.7420    -3.8670 nb         1 E0S      -0.746000
     19 N12          6.5650    -6.9820    -5.0520 nv         1 E0S      -1.065500
     20 N22          8.0570    -3.5120    -6.8440 ns         1 E0S      -0.529400
     21 N24          9.6760    -4.6800    -8.2570 na         1 E0S      -0.189400
     22 N25         10.6560    -4.2220    -9.1550 nc         1 E0S      -0.215800
     23 N26         10.5980    -2.9330    -9.1430 nd         1 E0S       0.007000
     24 N27          9.6830    -2.5360    -8.3330 nd         1 E0S      -0.452000
     25 O08          3.3760    -4.6330    -2.6360 os         1 E0S      -0.321400
     26 O17          4.2950    -1.0970    -4.2880 o          1 E0S      -0.522100
     27 O21          7.9850    -5.7280    -6.7020 o          1 E0S      -0.598100
     28 H1          -0.3610    -0.7680     0.6730 hc         1 E0S       0.038700
     29 H2          -0.3610     0.9670     0.3290 hc         1 E0S       0.038700
     30 H3          -0.3610    -0.1990    -1.0020 hc         1 E0S       0.038700
     31 H4           1.8900     0.8850    -0.5100 hc         1 E0S       0.060700
     32 H5           1.5250    -0.7670     2.0080 hc         1 E0S       0.038700
     33 H6           1.8530     0.9680     1.8910 hc         1 E0S       0.038700
     34 H7           3.1050    -0.2010     1.4480 hc         1 E0S       0.038700
     35 H8           1.0760    -2.5810     0.6460 ha         1 E0S       0.146000
     36 H9           1.8750    -4.6030    -0.4940 ha         1 E0S       0.155000
     37 H10          6.1730    -2.4550    -5.4900 ha         1 E0S       0.159000
     38 H11          3.1750    -0.1240    -2.1400 ha         1 E0S       0.159000
     39 H12          7.3370    -7.3150    -4.5080 hn         1 E0S       0.454300
     40 H13          6.1890    -7.5490    -5.7850 hn         1 E0S       0.454300
     41 H14          7.7020    -2.6270    -6.5390 hn         1 E0S       0.361500
     42 H15          9.4570    -5.6300    -8.0300 hn         1 E0S       0.367700
@<TRIPOS>BOND
     1    27    16 2
     2    19     9 1
     3    16    20 1
     4    16    10 1
     5    20    17 1
     6     9    10 ar
     7     9    18 ar
     8    10    11 ar
     9    18     8 ar
    10    17    24 2
    11    17    21 1
    12    24    23 1
    13    11    12 ar
    14    21    22 1
    15     8    12 ar
    16     8    25 1
    17    12    13 1
    18    23    22 2
    19    25     7 1
    20    13    26 2
    21    13    14 1
    22     7    14 ar
    23     7     6 ar
    24    14    15 ar
    25     6     5 ar
    26    15     4 ar
    27     5     4 ar
    28     4     2 1
    29     2     3 1
    30     2     1 1
    31     1    28 1
    32     1    29 1
    33     1    30 1
    34     2    31 1
    35     3    32 1
    36     3    33 1
    37     3    34 1
    38     5    35 1
    39     6    36 1
    40    11    37 1
    41    15    38 1
    42    19    39 1
    43    19    40 1
    44    20    41 1
    45    21    42 1
@<TRIPOS>SUBSTRUCTURE
     1 E0S         1 TEMP              0 ****  ****    0 ROOT
