@<TRIPOS>MOLECULE
E0S
   42    45     1     0     0
SMALL
bcc


@<TRIPOS>ATOM
      1 C01          0.0000     0.0000     0.0000 c3         1 E0S       0.005400
      2 C02          1.5300     0.0000     0.0000 c3         1 E0S       0.006600
      3 C03          2.0400     0.0000     1.4420 c3         1 E0S       0.005400
      4 C04          2.0320    -1.2290    -0.7120 ca         1 E0S      -0.120300
      5 C05          1.6970    -2.4890    -0.2380 ca         1 E0S      -0.035000
      6 C06          2.1450    -3.6250    -0.8760 ca         1 E0S      -0.132000
      7 C07          2.9450    -3.5200    -2.0110 ca         1 E0S       0.163100
      8 C09          4.3860    -4.6080    -3.5260 ca         1 E0S       0.695600
      9 C11          5.9760    -5.7760    -4.7440 ca         1 E0S       0.637200
     10 C13          6.4440    -4.5990    -5.3640 ca         1 E0S      -0.357900
     11 C14          5.8430    -3.3810    -5.0360 ca         1 E0S       0.060000
     12 C15          4.8110    -3.3940    -4.1000 ca         1 E0S      -0.380900
     13 C16          4.1430    -2.1430    -3.6850 c          1 E0S       0.668300
     14 C18          3.2840    -2.2430    -2.4830 ca         1 E0S      -0.249600
     15 C19          2.8190    -1.1010    -1.8360 ca         1 E0S       0.002000
     16 C20          7.5430    -4.6530    -6.3440 c          1 E0S       0.612700
     17 C23          9.0910    -3.5630    -7.7680 cc         1 E0S       0.212400
     18 N10          4.9870    -5.7420    -3.8670 nb         1 E0S      -0.629000
     19 N12          6.5650    -6.9820    -5.0520 nv         1 E0S      -0.644500
     20 N22          8.0570    -3.5120    -6.8440 ns         1 E0S      -0.063400
     21 N24          9.6760    -4.6800    -8.2570 na         1 E0S       0.278600
     22 N25         10.6560    -4.2220    -9.1550 nc         1 E0S      -0.399800
     23 N26         10.5980    -2.9330    -9.1430 nd         1 E0S       0.046000
     24 N27          9.6830    -2.5360    -8.3330 nd         1 E0S      -0.430000
     25 O08          3.3760    -4.6330    -2.6360 os         1 E0S      -0.296400
     26 O17          4.2950    -1.0970    -4.2880 o          1 E0S      -0.558100
     27 O21          7.9850    -5.7280    -6.7020 o          1 E0S      -0.656100
     28 H1          -0.3610    -0.7680     0.6730 hc         1 E0S       0.006533
     29 H2          -0.3610     0.9670     0.3290 hc         1 E0S       0.006533
     30 H3          -0.3610    -0.1990    -1.0020 hc         1 E0S       0.006533
     31 H4           1.8900     0.8850    -0.5100 hc         1 E0S       0.031700
     32 H5           1.5250    -0.7670     2.0080 hc         1 E0S       0.006533
     33 H6           1.8530     0.9680     1.8910 hc         1 E0S       0.006533
     34 H7           3.1050    -0.2010     1.4480 hc         1 E0S       0.006533
     35 H8           1.0760    -2.5810     0.6460 ha         1 E0S       0.115000
     36 H9           1.8750    -4.6030    -0.4940 ha         1 E0S       0.124000
     37 H10          6.1730    -2.4550    -5.4900 ha         1 E0S       0.126000
     38 H11          3.1750    -0.1240    -2.1400 ha         1 E0S       0.127000
     39 H12          7.3370    -7.3150    -4.5080 hn         1 E0S       0.292800
     40 H13          6.1890    -7.5490    -5.7850 hn         1 E0S       0.292800
     41 H14          7.7020    -2.6270    -6.5390 hn         1 E0S       0.197500
     42 H15          9.4570    -5.6300    -8.0300 hn         1 E0S       0.215700
@<TRIPOS>BOND
     1     1     2 1   
     2     1    28 1   
     3     1    29 1   
     4     1    30 1   
     5     2     3 1   
     6     2     4 1   
     7     2    31 1   
     8     3    32 1   
     9     3    33 1   
    10     3    34 1   
    11     4     5 ar  
    12     4    15 ar  
    13     5     6 ar  
    14     5    35 1   
    15     6     7 ar  
    16     6    36 1   
    17     7    14 ar  
    18     7    25 1   
    19     8    12 ar  
    20     8    18 ar  
    21     8    25 1   
    22     9    10 ar  
    23     9    18 ar  
    24     9    19 1   
    25    10    11 ar  
    26    10    16 1   
    27    11    12 ar  
    28    11    37 1   
    29    12    13 1   
    30    13    14 1   
    31    13    26 2   
    32    14    15 ar  
    33    15    38 1   
    34    16    20 1   
    35    16    27 2   
    36    17    20 1   
    37    17    21 1   
    38    17    24 2   
    39    19    39 1   
    40    19    40 1   
    41    20    41 1   
    42    21    22 1   
    43    21    42 1   
    44    22    23 2   
    45    23    24 1   
@<TRIPOS>SUBSTRUCTURE
     1 E0S         1 TEMP              0 ****  ****    0 ROOT
