@<TRIPOS>MOLECULE
molecule
   61    65     1     0     0
SMALL
bcc


@<TRIPOS>ATOM
      1 C27          0.0000     0.0000     0.0000 c3         1 E0V       0.126100
      2 C19          2.3540     0.2470     5.5270 c3         1 E0V       0.170300
      3 C15          6.8960    -1.7850    10.3280 c3         1 E0V       0.242100
      4 C20          1.8180     0.2260     4.0950 c3         1 E0V       0.153800
      5 C24          1.6070    -1.1430     2.1080 c3         1 E0V       0.370300
      6 C31          0.0780    -1.1890     2.1920 c3         1 E0V       0.118100
      7 C26          1.5310     0.0000     0.0000 c3         1 E0V       0.036100
      8 C23          4.1630    -1.2220     4.8720 c3         1 E0V       0.170300
      9 C33          2.0340     1.2310    -0.7100 c          1 E0V       0.899600
     10 C29         -0.5030    -1.2220     0.7750 c3         1 E0V       0.082100
     11 C01          3.5820     6.6870    12.3400 c3         1 E0V       0.231100
     12 C03          3.5900     5.0170    10.5190 ca         1 E0V       0.725200
     13 C04          4.3660     4.1860    11.3270 ca         1 E0V      -0.339300
     14 C05          4.7600     2.9690    10.8520 ca         1 E0V       0.008000
     15 C06          4.3700     2.5820     9.5520 cp         1 E0V      -0.353800
     16 C07          3.5940     3.4570     8.7970 ca         1 E0V       0.555600
     17 C10          4.1260     1.2880     7.5710 ca         1 E0V      -0.344700
     18 C11          4.6740     1.3320     8.8420 cp         1 E0V       0.567800
     19 C13          5.5750    -0.7800     8.4990 ca         1 E0V       0.967900
     20 C17          4.3430     0.1410     6.7830 ca         1 E0V       0.738200
     21 C22          3.6270    -1.2430     3.4390 c3         1 E0V       0.153800
     22 N08          3.2340     4.6400     9.3060 nb         1 E0V      -0.754000
     23 N12          5.3950     0.2740     9.2690 nb         1 E0V      -0.822000
     24 N16          5.0640    -0.8550     7.2780 nb         1 E0V      -0.841000
     25 N18          3.8120     0.0570     5.5050 nh         1 E0V      -0.686300
     26 N21          2.1700    -1.0530     3.4610 n3         1 E0V      -0.709600
     27 O25          2.0060     0.0000     1.3480 os         1 E0V      -0.413600
     28 O28         -0.4780    -0.0590    -1.3460 oh         1 E0V      -0.571800
     29 O30         -1.9300    -1.1910     0.8430 oh         1 E0V      -0.622800
     30 O32         -0.3250    -2.3620     2.9010 oh         1 E0V      -0.602800
     31 O34          2.6520     2.0700    -0.0990 o          1 E0V      -0.819300
     32 O35          1.7940     1.3940    -2.0200 o          1 E0V      -0.819300
     33 S09          3.2360     2.7600     7.2240 ss         1 E0V      -0.089200
     34 H1          -0.3600     0.9030     0.4780 h1         1 E0V       0.052700
     35 H2           1.8950    -0.5530     6.0960 h1         1 E0V       0.052950
     36 H3           2.1230     1.2020     5.9840 h1         1 E0V       0.052950
     37 H4           7.4570    -2.6910    10.5220 h1         1 E0V       0.035033
     38 H5           7.5560    -0.9290    10.4020 h1         1 E0V       0.035033
     39 H6           6.1000    -1.6910    11.0560 h1         1 E0V       0.035033
     40 H7           0.7400     0.3340     4.1120 h1         1 E0V       0.062950
     41 H8           2.2590     1.0400     3.5330 h1         1 E0V       0.062950
     42 H9           1.9670    -2.0410     1.6210 h2         1 E0V       0.054700
     43 H10         -0.2810    -0.3070     2.7080 h1         1 E0V       0.049700
     44 H11          1.8900    -0.8870    -0.5070 h1         1 E0V       0.040700
     45 H12          3.7210    -2.0360     5.4340 h1         1 E0V       0.052950
     46 H13          5.2410    -1.3310     4.8550 h1         1 E0V       0.052950
     47 H14         -0.1790    -2.1260     0.2740 h1         1 E0V       0.050700
     48 H15          3.2040     7.6850    12.5250 h1         1 E0V       0.034700
     49 H16          3.2210     6.0160    13.1100 h1         1 E0V       0.034700
     50 H17          4.6650     6.7030    12.3530 h1         1 E0V       0.034700
     51 H18          4.5310     4.4420    12.3660 ha         1 E0V       0.134000
     52 H19          5.3630     2.3100    11.4650 ha         1 E0V       0.147000
     53 H20          4.0870    -0.4430     2.8700 h1         1 E0V       0.062950
     54 H21          3.8590    -2.1970     2.9810 h1         1 E0V       0.062950
     55 H22          2.6400     6.8620    10.4180 hn         1 E0V       0.451800
     56 H23          6.4830    -2.6450     8.4040 hn         1 E0V       0.454800
     57 H25         -1.1870     0.5530    -1.4550 ho         1 E0V       0.397000
     58 H26         -2.2840    -1.8980     0.3300 ho         1 E0V       0.400000
     59 H27         -1.2210    -2.2690     3.1800 ho         1 E0V       0.398000
     60 N02          3.1910     6.2580    10.9950 nu         1 E0V      -0.920900
     61 N14          6.3220    -1.8440     8.9820 nu         1 E0V      -0.908900
@<TRIPOS>BOND
     1    60    11 1
     2    60    12 1
     3    13    12 ar
     4    13    14 ar
     5    12    22 ar
     6    14    15 ar
     7    22    16 ar
     8    16    15 ar
     9    16    33 1
    10    15    18 1
    11    18    23 ar
    12    18    17 ar
    13    23    19 ar
    14    33    17 1
    15     3    61 1
    16    17    20 ar
    17    19    61 1
    18    19    24 ar
    19    20    24 ar
    20    20    25 1
    21    31     9 1
    22    32     9 1
    23    25     8 1
    24    25     2 1
    25     9     7 1
    26     8    21 1
    27    21    26 1
    28    27     7 1
    29    27     5 1
    30     2     4 1
    31     7     1 1
    32     4    26 1
    33    26     5 1
    34     5     6 1
    35     1    28 1
    36     1    10 1
    37     6    10 1
    38     6    30 1
    39    10    29 1
    40     1    34 1
    41     2    35 1
    42     2    36 1
    43     3    37 1
    44     3    38 1
    45     3    39 1
    46     4    40 1
    47     4    41 1
    48     5    42 1
    49     6    43 1
    50     7    44 1
    51     8    45 1
    52     8    46 1
    53    10    47 1
    54    11    48 1
    55    11    49 1
    56    11    50 1
    57    13    51 1
    58    14    52 1
    59    21    53 1
    60    21    54 1
    61    60    55 1
    62    61    56 1
    63    28    57 1
    64    29    58 1
    65    30    59 1
@<TRIPOS>SUBSTRUCTURE
     1 E0V         1 TEMP              0 ****  ****    0 ROOT
