@<TRIPOS>MOLECULE
molecule
   62    66     1     0     0
SMALL
bcc


@<TRIPOS>ATOM
      1 C10          0.0000     0.0000     0.0000 ca         1 E0Z      -0.101000
      2 C13         -2.7000    -0.0000     2.5540 ca         1 E0Z      -0.151300
      3 C17         -3.9740    -1.3410    -1.5870 c3         1 E0Z       0.050300
      4 C24         -5.7330    -6.0770    -4.5810 c          1 E0Z       0.654100
      5 C28         -6.2620    -7.4500    -6.5230 c3         1 E0Z       0.163300
      6 C01         -4.6700    -0.0020     3.9140 ca         1 E0Z      -0.135000
      7 C02         -3.8810    -0.0020     5.0640 ca         1 E0Z      -0.111000
      8 C03         -2.5240     0.0000     4.9850 ca         1 E0Z      -0.174300
      9 C04         -1.8930     0.0010     3.7220 ca         1 E0Z       0.444600
     10 C06          0.0710     0.0010     2.4740 ca         1 E0Z       0.448600
     11 C07          1.4780     0.0020     2.4040 ca         1 E0Z      -0.164300
     12 C08          2.0890     0.0000     1.1880 ca         1 E0Z       0.044400
     13 C09          1.3610     0.0000     0.0000 ca         1 E0Z      -0.123000
     14 C11         -0.6900     0.0010     1.2230 ca         1 E0Z      -0.196300
     15 C12         -2.0970    -0.0000     1.2810 ca         1 E0Z       0.196600
     16 C14         -4.1020    -0.0020     2.6780 ca         1 E0Z      -0.098000
     17 C16         -3.0190    -1.3640    -0.3920 c3         1 E0Z       0.196800
     18 C18         -5.3110    -3.3490    -2.2800 cc         1 E0Z      -0.287600
     19 C19         -4.9990    -4.5680    -2.7810 cd         1 E0Z       0.293600
     20 C23         -5.9630    -5.6640    -3.1490 c3         1 E0Z      -0.163700
     21 C29         -7.2270    -8.5470    -6.8920 ca         1 E0Z      -0.091300
     22 C30         -8.4620    -8.2280    -7.4240 ca         1 E0Z      -0.196000
     23 C31         -9.3510    -9.2360    -7.7640 ca         1 E0Z       0.122100
     24 C32         -8.9960   -10.5670    -7.5670 ca         1 E0Z       0.087100
     25 C33         -7.7570   -10.8800    -7.0330 ca         1 E0Z      -0.136000
     26 C34         -6.8720    -9.8700    -6.7010 ca         1 E0Z      -0.136000
     27 C37        -10.8620    -7.5380    -8.4610 c3         1 E0Z       0.125700
     28 N05         -0.5630     0.0010     3.6440 nb         1 E0Z      -0.678000
     29 N20         -4.1350    -2.7000    -2.1090 na         1 E0Z       0.121400
     30 N21         -3.1850    -3.4830    -2.4840 nc         1 E0Z      -0.202800
     31 N22         -3.6650    -4.6060    -2.8840 nd         1 E0Z      -0.326000
     32 N26         -6.4860    -7.0500    -5.1320 ns         1 E0Z      -0.590900
     33 N27         -2.8570    -0.0010     0.1310 nu         1 E0Z      -0.828600
     34 O25         -4.8700    -5.5330    -5.2370 o          1 E0Z      -0.581100
     35 O35         -9.8650   -11.5600    -7.8990 oh         1 E0Z      -0.503100
     36 O36        -10.5670    -8.9250    -8.2880 os         1 E0Z      -0.311900
     37 Cl1          3.8240     0.0010     1.1150 cl         1 E0Z      -0.102400
     38 H1          -0.5460     0.0000    -0.9360 ha         1 E0Z       0.137000
     39 H2          -3.5670    -0.7030    -2.3620 h1         1 E0Z       0.071200
     40 H3          -4.9370    -0.9580    -1.2720 h1         1 E0Z       0.071200
     41 H4          -6.4180    -6.5980    -7.1730 h1         1 E0Z       0.060200
     42 H5          -5.2460    -7.8090    -6.6360 h1         1 E0Z       0.060200
     43 H6          -5.7490    -0.0040     4.0060 ha         1 E0Z       0.131000
     44 H7          -4.3580    -0.0030     6.0370 ha         1 E0Z       0.134000
     45 H8          -1.9280    -0.0000     5.8890 ha         1 E0Z       0.152000
     46 H9           2.0700     0.0020     3.3110 ha         1 E0Z       0.165000
     47 H10          1.8900    -0.0010    -0.9450 ha         1 E0Z       0.146000
     48 H11         -4.7260    -0.0010     1.7930 ha         1 E0Z       0.143000
     49 H12         -3.4260    -2.0020     0.3830 h1         1 E0Z       0.062700
     50 H13         -2.0560    -1.7470    -0.7070 h1         1 E0Z       0.062700
     51 H14         -6.2950    -2.8960    -2.2730 h4         1 E0Z       0.179000
     52 H15         -5.8070    -6.5160    -2.4990 hc         1 E0Z       0.070200
     53 H16         -6.9790    -5.3050    -3.0360 hc         1 E0Z       0.070200
     54 H17         -8.7350    -7.1910    -7.5760 ha         1 E0Z       0.144000
     55 H18         -7.4790   -11.9160    -6.8810 ha         1 E0Z       0.145000
     56 H19         -5.9040   -10.1150    -6.2830 ha         1 E0Z       0.141000
     57 H20        -10.1230    -7.0900    -9.1150 h1         1 E0Z       0.042367
     58 H21        -10.8410    -7.0410    -7.4990 h1         1 E0Z       0.042367
     59 H22        -11.8460    -7.4300    -8.9020 h1         1 E0Z       0.042367
     60 H23         -7.1810    -7.5170    -4.5830 hn         1 E0Z       0.315500
     61 H24         -2.8110     0.7750    -0.4990 hn         1 E0Z       0.431800
     62 H25         -9.5480   -12.0130    -8.6620 ho         1 E0Z       0.418000
@<TRIPOS>BOND
     1    33    17 1
     2    33    15 1
     3    17     3 1
     4    16     6 ar
     5    16     2 ar
     6     6     7 ar
     7     3    29 1
     8    15     2 ar
     9    15    14 ar
    10     2     9 ar
    11    29    30 1
    12    29    18 1
    13     7     8 ar
    14     1    14 ar
    15     1    13 ar
    16    30    31 2
    17    14    10 ar
    18     9     8 ar
    19     9    28 ar
    20    34     4 2
    21    18    19 2
    22    13    12 ar
    23    31    19 1
    24    10    28 ar
    25    10    11 ar
    26     5    21 1
    27     5    32 1
    28    26    25 ar
    29    26    21 ar
    30    19    20 1
    31    12    11 ar
    32    12    37 1
    33     4    32 1
    34     4    20 1
    35    25    24 ar
    36    21    22 ar
    37    24    35 1
    38    24    23 ar
    39    22    23 ar
    40    23    36 1
    41    36    27 1
    42     1    38 1
    43     3    39 1
    44     3    40 1
    45     5    41 1
    46     5    42 1
    47     6    43 1
    48     7    44 1
    49     8    45 1
    50    11    46 1
    51    13    47 1
    52    16    48 1
    53    17    49 1
    54    17    50 1
    55    18    51 1
    56    20    52 1
    57    20    53 1
    58    22    54 1
    59    25    55 1
    60    26    56 1
    61    27    57 1
    62    27    58 1
    63    27    59 1
    64    32    60 1
    65    33    61 1
    66    35    62 1
@<TRIPOS>SUBSTRUCTURE
     1 E0Z         1 TEMP              0 ****  ****    0 ROOT
