@<TRIPOS>MOLECULE
E10
   78    81     1     0     0
SMALL
bcc


@<TRIPOS>ATOM
      1 C1         -0.0510   -0.2800   -0.1170 c         1 E10      0.684700
      2 N2          1.3680   -0.3900   -0.0620 n         1 E10     -0.427100
      3 C3          2.0740   -0.1940    1.0910 cc        1 E10      0.168400
      4 C4          1.4180    0.0860    2.2880 cd        1 E10     -0.336200
      5 C5         -0.0040    0.2980    2.2640 cd        1 E10     -0.069000
      6 C6         -0.7140    0.1200    1.1270 cc        1 E10     -0.213200
      7 O7         -0.6070   -0.5170   -1.1960 o         1 E10     -0.552500
      8 C9          3.5750   -0.2560    1.0370 c3        1 E10     -0.079200
      9 C10         2.1350    0.2610    3.5790 c3        1 E10      0.234700
     10 C13         3.6600    0.1300    3.4920 c3        1 E10     -0.100400
     11 C14         4.1720    0.5860    2.1440 c3        1 E10     -0.074400
     12 N17         1.5780   -0.7500    4.5840 n4        1 E10     -0.777000
     13 C24         1.9130   -0.4060    5.9930 c3        1 E10      0.098800
     14 C29        -0.0960   -2.1230   22.9270 c         1 E10      0.684700
     15 N30         0.6470   -3.3280   22.7730 n         1 E10     -0.427100
     16 C31         0.7190   -3.9970   21.5840 cc        1 E10      0.168400
     17 C32         0.0910   -3.4950   20.4450 cd        1 E10     -0.336200
     18 C33        -0.7470   -2.3330   20.5730 cd        1 E10     -0.069000
     19 C34        -0.8370   -1.6680   21.7470 cc        1 E10     -0.213200
     20 O35        -0.0670   -1.5640   24.0300 o         1 E10     -0.552500
     21 C36         1.4640   -5.3020   21.5340 c3        1 E10     -0.079200
     22 C37         0.1770   -4.1590   19.1180 c3        1 E10      0.234700
     23 C38         0.9970   -5.4550   19.0970 c3        1 E10     -0.100400
     24 C39         0.9170   -6.1730   20.4250 c3        1 E10     -0.074400
     25 N40         0.7510   -3.1590   18.1120 n4        1 E10     -0.777000
     26 C41         0.5020   -3.5560   16.6990 c3        1 E10      0.098800
     27 C63         1.3700   -1.4190    6.9950 c3        1 E10     -0.108400
     28 C64         1.7300   -0.9830    8.4020 c3        1 E10     -0.078400
     29 C65         1.1920   -1.9650    9.4230 c3        1 E10     -0.079400
     30 C66         1.5360   -1.5270   10.8320 c3        1 E10     -0.079400
     31 C67         0.9900   -2.5020   11.8550 c3        1 E10     -0.079400
     32 C68         1.3210   -2.0560   13.2640 c3        1 E10     -0.079400
     33 C69         0.7650   -3.0270   14.2860 c3        1 E10     -0.078400
     34 C70         1.0850   -2.5670   15.6950 c3        1 E10     -0.108400
     35 H2          1.8560   -0.5770   -0.9170 hn        1 E10      0.353500
     36 H5         -0.5070    0.6430    3.1820 ha        1 E10      0.129000
     37 H6         -1.8010    0.2800    1.0550 ha        1 E10      0.188000
     38 H9C1        3.9600    0.1140    0.0460 hc        1 E10      0.090200
     39 H9C2        3.8980   -1.3280    1.1390 hc        1 E10      0.090200
     40 H10         1.8740    1.2780    4.0080 hx        1 E10      0.102700
     41 H131        3.9880   -0.9330    3.6540 hc        1 E10      0.065700
     42 H132        4.1270    0.7540    4.3000 hc        1 E10      0.065700
     43 H141        3.9220    1.6680    1.9820 hc        1 E10      0.082200
     44 H142        5.2910    0.4910    2.1230 hc        1 E10      0.082200
     45 H17         1.9490   -1.6790    4.3600 hn        1 E10      0.446300
     46 H241        1.4870    0.6150    6.2130 hx        1 E10      0.103200
     47 H242        3.0370   -0.3470    6.0750 hx        1 E10      0.103200
     48 H34        -1.4710   -0.7810   21.8990 ha        1 E10      0.188000
     49 H361        1.3790   -5.8540   22.5110 hc        1 E10      0.090200
     50 H362        2.5560   -5.0910   21.3680 hc        1 E10      0.090200
     51 H37        -0.8730   -4.3790   18.7490 hx        1 E10      0.102700
     52 H381        0.6030   -6.1240   18.2860 hc        1 E10      0.065700
     53 H382        2.0780   -5.2500   18.8700 hc        1 E10      0.065700
     54 H391       -0.1460   -6.4570   20.6480 hc        1 E10      0.082200
     55 H392        1.5140   -7.1230   20.3670 hc        1 E10      0.082200
     56 H40         1.7600   -3.0710   18.2710 hn        1 E10      0.446300
     57 H411        0.9570   -4.5770   16.5430 hx        1 E10      0.103200
     58 H412       -0.6130   -3.6380   16.5520 hx        1 E10      0.103200
     59 H631        0.2540   -1.4990    6.9040 hc        1 E10      0.066700
     60 H632        1.8020   -2.4360    6.7960 hc        1 E10      0.066700
     61 H641        2.8460   -0.9090    8.5020 hc        1 E10      0.055700
     62 H642        1.3070    0.0370    8.6030 hc        1 E10      0.055700
     63 H651        0.0780   -2.0480    9.3160 hc        1 E10      0.050450
     64 H652        1.6220   -2.9840    9.2300 hc        1 E10      0.050450
     65 H661        2.6500   -1.4510   10.9420 hc        1 E10      0.048700
     66 H662        1.1120   -0.5060   11.0220 hc        1 E10      0.048700
     67 H671       -0.1230   -2.5860   11.7380 hc        1 E10      0.048700
     68 H672        1.4210   -3.5220   11.6710 hc        1 E10      0.048700
     69 H681        2.4340   -1.9800   13.3830 hc        1 E10      0.050450
     70 H682        0.8950   -1.0340   13.4450 hc        1 E10      0.050450
     71 H691       -0.3470   -3.1110   14.1580 hc        1 E10      0.055700
     72 H692        1.2000   -4.0470   14.1120 hc        1 E10      0.055700
     73 H701        0.6540   -1.5430   15.8600 hc        1 E10      0.066700
     74 H702        2.1980   -2.4930   15.8200 hc        1 E10      0.066700
     75 H30         1.0930   -3.7090   23.5840 hn        1 E10      0.353500
     76 H172        0.5570   -0.7900    4.4750 hn        1 E10      0.446300
     77 H402        0.3280   -2.2400   18.2890 hn        1 E10      0.446300
     78 H33        -1.3440   -2.0090   19.7060 ha        1 E10      0.129000
@<TRIPOS>BOND
     1    1    2 1   
     2    1    6 1   
     3    1    7 2   
     4    2    3 1   
     5    2   35 1   
     6    3    4 2   
     7    3    8 1   
     8    4    5 1   
     9    4    9 1   
    10    5    6 2   
    11    5   36 1   
    12    6   37 1   
    13    8   11 1   
    14    8   38 1   
    15    8   39 1   
    16    9   10 1   
    17    9   12 1   
    18    9   40 1   
    19   10   11 1   
    20   10   41 1   
    21   10   42 1   
    22   11   43 1   
    23   11   44 1   
    24   12   13 1   
    25   12   45 1   
    26   12   76 1   
    27   13   27 1   
    28   13   46 1   
    29   13   47 1   
    30   14   15 1   
    31   14   19 1   
    32   14   20 2   
    33   15   16 1   
    34   15   75 1   
    35   16   17 2   
    36   16   21 1   
    37   17   18 1   
    38   17   22 1   
    39   18   19 2   
    40   18   78 1   
    41   19   48 1   
    42   21   24 1   
    43   21   49 1   
    44   21   50 1   
    45   22   23 1   
    46   22   25 1   
    47   22   51 1   
    48   23   24 1   
    49   23   52 1   
    50   23   53 1   
    51   24   54 1   
    52   24   55 1   
    53   25   26 1   
    54   25   56 1   
    55   25   77 1   
    56   26   34 1   
    57   26   57 1   
    58   26   58 1   
    59   27   28 1   
    60   27   59 1   
    61   27   60 1   
    62   28   29 1   
    63   28   61 1   
    64   28   62 1   
    65   29   30 1   
    66   29   63 1   
    67   29   64 1   
    68   30   31 1   
    69   30   65 1   
    70   30   66 1   
    71   31   32 1   
    72   31   67 1   
    73   31   68 1   
    74   32   33 1   
    75   32   69 1   
    76   32   70 1   
    77   33   34 1   
    78   33   71 1   
    79   33   72 1   
    80   34   73 1   
    81   34   74 1   
@<TRIPOS>SUBSTRUCTURE
     1 E10         1 TEMP              0 ****  ****    0 ROOT
