@<TRIPOS>MOLECULE
E11
   73    76     1     0     0
SMALL
bcc


@<TRIPOS>ATOM
      1 N1           0.0000     0.0000     0.0000 nb         1 E11      -0.783000
      2 C2           1.3310     0.0000     0.0000 ca         1 E11       0.768900
      3 N3           2.0440     0.0000     1.1100 nb         1 E11      -0.769000
      4 C4           1.4360    -0.0010     2.3080 ca         1 E11       0.504600
      5 C5           0.0200    -0.0010     2.3550 ca         1 E11      -0.359600
      6 C6          -0.6910    -0.0010     1.1300 ca         1 E11       0.600200
      7 CAC          2.1650    -0.0020     3.5030 ca         1 E11      -0.285300
      8 CAD          1.4950    -0.0020     4.7070 ca         1 E11       0.176100
      9 CAE          0.0940    -0.0030     4.7460 ca         1 E11       0.091100
     10 CAF         -0.6360    -0.0010     3.5910 ca         1 E11      -0.143000
     11 OAK         -0.5460    -0.0050     5.9460 os         1 E11      -0.293900
     12 OAL          2.1990    -0.0030     5.8680 os         1 E11      -0.293900
     13 NAM         -2.0710     0.0000     1.1150 nu         1 E11      -0.481900
     14 NAN          1.9940     0.0010    -1.2140 nu         1 E11      -0.490900
     15 CAO          3.4580     0.0010    -1.2490 c3         1 E11       0.168800
     16 CAP          3.9340     0.0020    -2.7030 c3         1 E11      -0.050400
     17 CAQ          5.4640     0.0020    -2.7390 c3         1 E11       0.158800
     18 NAR          5.9200     0.0020    -4.1350 n3         1 E11      -0.548600
     19 CAS          7.3680     0.2420    -4.2160 c3         1 E11       0.182600
     20 CAU          5.5550    -1.2510    -4.8090 c3         1 E11       0.182600
     21 CAV         -2.7890     0.0000    -0.1620 c3         1 E11       0.127500
     22 CAW         -2.9360     1.4380    -0.6660 c3         1 E11      -0.039400
     23 CAX         -3.7400     1.4370    -1.9680 c3         1 E11       0.151800
     24 NAY         -5.0630     0.8450    -1.7280 n3         1 E11      -0.537600
     25 CAZ         -4.9470    -0.5510    -1.2890 c3         1 E11       0.151800
     26 CBA         -4.1800    -0.6100     0.0330 c3         1 E11      -0.039400
     27 CBB         -5.9120     0.9530    -2.9220 c3         1 E11       0.212100
     28 CBC         -7.3250     0.5650    -2.5690 ca         1 E11      -0.092300
     29 CBD         -8.2170     1.5250    -2.1320 ca         1 E11      -0.091500
     30 CBE         -9.5130     1.1690    -1.8090 ca         1 E11      -0.101000
     31 CBF         -9.9170    -0.1480    -1.9240 ca         1 E11      -0.101000
     32 CBG         -9.0250    -1.1080    -2.3620 ca         1 E11      -0.101000
     33 CBH         -7.7310    -0.7510    -2.6910 ca         1 E11      -0.091500
     34 CBI          3.6240    -0.0040     5.7630 c3         1 E11       0.239700
     35 CBJ         -1.9750    -0.0040     5.9190 c3         1 E11       0.241700
     36 HAC          3.2480    -0.0010     3.4810 ha         1 E11       0.140000
     37 HAF         -1.7190    -0.0020     3.6320 ha         1 E11       0.118000
     38 HNAM        -2.5810    -0.0400     1.9760 hn         1 E11       0.298800
     39 HNAN         1.4730    -0.0120    -2.0690 hn         1 E11       0.296800
     40 HAO          3.8310    -0.8830    -0.7470 h1         1 E11       0.024200
     41 HAOA         3.8310     0.8860    -0.7470 h1         1 E11       0.024200
     42 HAP          3.5610    -0.8820    -3.2050 hc         1 E11       0.024700
     43 HAPA         3.5610     0.8870    -3.2040 hc         1 E11       0.024700
     44 HAQ          5.8370     0.8870    -2.2370 h1         1 E11       0.011700
     45 HAQA         5.8370    -0.8820    -2.2370 h1         1 E11       0.011700
     46 HAS          7.6040     1.1890    -3.7460 h1         1 E11       0.001200
     47 HASA         7.6720     0.2690    -5.2560 h1         1 E11       0.001200
     48 HASB         7.8950    -0.5560    -3.7070 h1         1 E11       0.001200
     49 HAU          5.5720    -2.0640    -4.0940 h1         1 E11       0.001200
     50 HAUA         4.5600    -1.1590    -5.2280 h1         1 E11       0.001200
     51 HAUB         6.2640    -1.4530    -5.6030 h1         1 E11       0.001200
     52 HAV         -2.2390    -0.5830    -0.8910 h1         1 E11       0.057700
     53 HAW         -1.9550     1.8580    -0.8490 hc         1 E11       0.026700
     54 HAWA        -3.4560     2.0290     0.0780 hc         1 E11       0.026700
     55 HAX         -3.2150     0.8530    -2.7140 h1         1 E11       0.014450
     56 HAXA        -3.8600     2.4550    -2.3170 h1         1 E11       0.014450
     57 HAZ         -5.9380    -0.9670    -1.1480 h1         1 E11       0.014450
     58 HAZA        -4.4140    -1.1220    -2.0390 h1         1 E11       0.014450
     59 HBA         -4.7180    -0.0480     0.7870 hc         1 E11       0.026700
     60 HBAA        -4.0800    -1.6420     0.3460 hc         1 E11       0.026700
     61 HBB         -5.8980     1.9740    -3.2840 h1         1 E11       0.012700
     62 HBBA        -5.5380     0.2910    -3.6930 h1         1 E11       0.012700
     63 HBD         -7.9010     2.5570    -2.0420 ha         1 E11       0.107000
     64 HBE        -10.2130     1.9220    -1.4650 ha         1 E11       0.102500
     65 HBF        -10.9320    -0.4280    -1.6690 ha         1 E11       0.102000
     66 HBG         -9.3420    -2.1400    -2.4550 ha         1 E11       0.102500
     67 HBH         -7.0320    -1.5040    -3.0350 ha         1 E11       0.107000
     68 HBI          3.9460    -0.8880     5.2270 h1         1 E11      -0.000300
     69 HBIA         4.0590    -0.0050     6.7550 h1         1 E11      -0.000300
     70 HBIB         3.9470     0.8810     5.2280 h1         1 E11      -0.000300
     71 HBJ         -2.3550    -0.0050     6.9340 h1         1 E11      -0.004633
     72 HBJA        -2.3260     0.8810     5.4030 h1         1 E11      -0.004633
     73 HBJB        -2.3270    -0.8880     5.4010 h1         1 E11      -0.004633
@<TRIPOS>BOND
     1     1     2 ar  
     2     1     6 ar  
     3     2     3 ar  
     4     2    14 1   
     5     3     4 ar  
     6     4     5 ar  
     7     4     7 ar  
     8     5     6 ar  
     9     5    10 ar  
    10     6    13 1   
    11     7     8 ar  
    12     7    36 1   
    13     8     9 ar  
    14     8    12 1   
    15     9    10 ar  
    16     9    11 1   
    17    10    37 1   
    18    11    35 1   
    19    12    34 1   
    20    13    21 1   
    21    13    38 1   
    22    14    15 1   
    23    14    39 1   
    24    15    16 1   
    25    15    40 1   
    26    15    41 1   
    27    16    17 1   
    28    16    42 1   
    29    16    43 1   
    30    17    18 1   
    31    17    44 1   
    32    17    45 1   
    33    18    19 1   
    34    18    20 1   
    35    19    46 1   
    36    19    47 1   
    37    19    48 1   
    38    20    49 1   
    39    20    50 1   
    40    20    51 1   
    41    21    22 1   
    42    21    26 1   
    43    21    52 1   
    44    22    23 1   
    45    22    53 1   
    46    22    54 1   
    47    23    24 1   
    48    23    55 1   
    49    23    56 1   
    50    24    25 1   
    51    24    27 1   
    52    25    26 1   
    53    25    57 1   
    54    25    58 1   
    55    26    59 1   
    56    26    60 1   
    57    27    28 1   
    58    27    61 1   
    59    27    62 1   
    60    28    29 ar  
    61    28    33 ar  
    62    29    30 ar  
    63    29    63 1   
    64    30    31 ar  
    65    30    64 1   
    66    31    32 ar  
    67    31    65 1   
    68    32    33 ar  
    69    32    66 1   
    70    33    67 1   
    71    34    68 1   
    72    34    69 1   
    73    34    70 1   
    74    35    71 1   
    75    35    72 1   
    76    35    73 1   
@<TRIPOS>SUBSTRUCTURE
     1 E11         1 TEMP              0 ****  ****    0 ROOT
