@<TRIPOS>MOLECULE
E12
   84    87     1     0     0
SMALL
bcc


@<TRIPOS>ATOM
      1 C1         -0.0810   -0.2610   -0.1100 c         1 E12      0.684700
      2 N2          1.3360   -0.3850   -0.0610 n         1 E12     -0.428100
      3 O7         -0.6440   -0.4910   -1.1870 o         1 E12     -0.554500
      4 C4          1.4010    0.0850    2.2900 cc        1 E12     -0.335200
      5 C5         -0.0190    0.3090    2.2730 cc        1 E12     -0.068000
      6 C14         4.1590    0.5600    2.1340 c3        1 E12     -0.074400
      7 N17         1.5650   -0.7540    4.5850 n4        1 E12     -0.776000
      8 C24         1.9120   -0.4150    5.9920 c3        1 E12      0.098800
      9 C6         -0.7360    0.1400    1.1390 cd        1 E12     -0.214200
     10 C9          3.5500   -0.2740    1.0280 c3        1 E12     -0.079200
     11 C10         2.1260    0.2510    3.5780 c3        1 E12      0.233700
     12 C13         3.6500    0.1060    3.4830 c3        1 E12     -0.100400
     13 C63         1.3650   -1.4250    6.9950 c3        1 E12     -0.108400
     14 C29        -0.2320   -2.6660   25.3690 c         1 E12      0.684700
     15 C3          2.0490   -0.1980    1.0890 cd        1 E12      0.166400
     16 N30         0.4970   -3.8780   25.2060 n         1 E12     -0.428100
     17 C31         0.5540   -4.5440   24.0150 cc        1 E12      0.166400
     18 C32        -0.0760   -4.0320   22.8820 cd        1 E12     -0.335200
     19 C33        -0.8990   -2.8610   23.0190 cd        1 E12     -0.068000
     20 C34        -0.9750   -2.1990   24.1950 cc        1 E12     -0.214200
     21 O35        -0.1910   -2.1110   26.4740 o         1 E12     -0.554500
     22 C36         1.2850   -5.8570   23.9570 c3        1 E12     -0.079200
     23 C37        -0.0060   -4.6940   21.5520 c3        1 E12      0.233700
     24 C38         0.8000   -5.9980   21.5220 c3        1 E12     -0.100400
     25 C39         0.7210   -6.7190   22.8490 c3        1 E12     -0.074400
     26 N40         0.5700   -3.6980   20.5440 n4        1 E12     -0.776000
     27 C41         0.3110   -4.0920   19.1320 c3        1 E12      0.098800
     28 C64         1.7380   -0.9950    8.4010 c3        1 E12     -0.078400
     29 C65         1.1980   -1.9740    9.4230 c3        1 E12     -0.079400
     30 C66         1.5540   -1.5420   10.8300 c3        1 E12     -0.079400
     31 C67         1.0080   -2.5150   11.8540 c3        1 E12     -0.079400
     32 C68         1.3520   -2.0770   13.2630 c3        1 E12     -0.079400
     33 C69         0.7990   -3.0460   14.2870 c3        1 E12     -0.079400
     34 C70         1.1340   -2.6010   15.6960 c3        1 E12     -0.079400
     35 C71         0.5720   -3.5670   16.7190 c3        1 E12     -0.078400
     36 C72         0.8990   -3.1070   18.1270 c3        1 E12     -0.108400
     37 H2          1.8180   -0.5750   -0.9180 hn        1 E12      0.353500
     38 H5         -0.5150    0.6550    3.1940 ha        1 E12      0.130000
     39 H141        5.2770    0.4550    2.1070 hc        1 E12      0.081700
     40 H142        3.9190    1.6450    1.9750 hc        1 E12      0.081700
     41 H17         1.9250   -1.6870    4.3580 hn        1 E12      0.446300
     42 H241        3.0370   -0.3670    6.0680 hx        1 E12      0.102700
     43 H242        1.4970    0.6100    6.2160 hx        1 E12      0.102700
     44 H6         -1.8220    0.3080    1.0730 ha        1 E12      0.187000
     45 H9C1        3.9330    0.0950    0.0360 hc        1 E12      0.089700
     46 H9C2        3.8630   -1.3490    1.1260 hc        1 E12      0.089700
     47 H10         1.8770    1.2710    4.0090 hx        1 E12      0.102700
     48 H131        4.1270    0.7240    4.2900 hc        1 E12      0.065700
     49 H132        3.9680   -0.9600    3.6420 hc        1 E12      0.065700
     50 H631        0.2470   -1.4930    6.9110 hc        1 E12      0.065700
     51 H632        1.7860   -2.4450    6.7920 hc        1 E12      0.065700
     52 H34        -1.5970   -1.3040   24.3530 ha        1 E12      0.187000
     53 H361        2.3780   -5.6560   23.7830 hc        1 E12      0.089700
     54 H362        1.2010   -6.4100   24.9330 hc        1 E12      0.089700
     55 H37        -1.0610   -4.9020   21.1910 hx        1 E12      0.102700
     56 H381        0.3940   -6.6600   20.7120 hc        1 E12      0.065700
     57 H382        1.8820   -5.8030   21.2880 hc        1 E12      0.065700
     58 H391        1.3080   -7.6750   22.7840 hc        1 E12      0.081700
     59 H392       -0.3430   -6.9920   23.0780 hc        1 E12      0.081700
     60 H40         1.5810   -3.6180   20.6980 hn        1 E12      0.446300
     61 H411        0.7560   -5.1170   18.9730 hx        1 E12      0.102700
     62 H412       -0.8050   -4.1630   18.9900 hx        1 E12      0.102700
     63 H641        2.8550   -0.9320    8.4940 hc        1 E12      0.055200
     64 H642        1.3260    0.0280    8.6070 hc        1 E12      0.055200
     65 H651        1.6180   -2.9960    9.2250 hc        1 E12      0.049200
     66 H652        0.0830   -2.0470    9.3230 hc        1 E12      0.049200
     67 H661        1.1390   -0.5180   11.0260 hc        1 E12      0.046700
     68 H662        2.6700   -1.4740   10.9330 hc        1 E12      0.046700
     69 H671        1.4290   -3.5380   11.6650 hc        1 E12      0.045700
     70 H672       -0.1060   -2.5900   11.7460 hc        1 E12      0.045700
     71 H681        2.4670   -2.0080   13.3730 hc        1 E12      0.045700
     72 H682        0.9350   -1.0520   13.4500 hc        1 E12      0.045700
     73 H691        1.2220   -4.0690   14.1040 hc        1 E12      0.046700
     74 H692       -0.3150   -3.1210   14.1710 hc        1 E12      0.046700
     75 H701        2.2480   -2.5320   15.8130 hc        1 E12      0.049200
     76 H702        0.7160   -1.5750   15.8750 hc        1 E12      0.049200
     77 H711        0.9990   -4.5900   16.5450 hc        1 E12      0.055200
     78 H712       -0.5410   -3.6410   16.5930 hc        1 E12      0.055200
     79 H721        0.4750   -2.0810   18.2920 hc        1 E12      0.065700
     80 H722        2.0130   -3.0410   18.2490 hc        1 E12      0.065700
     81 H30         0.9450   -4.2660   26.0130 hn        1 E12      0.353500
     82 H172        0.5430   -0.7840    4.4820 hn        1 E12      0.446300
     83 H402        0.1560   -2.7750   20.7230 hn        1 E12      0.446300
     84 H33        -1.4980   -2.5270   22.1560 ha        1 E12      0.130000
@<TRIPOS>BOND
     1    1    2 1   
     2    1    3 2   
     3    1    9 1   
     4    2   15 1   
     5    2   37 1   
     6    4    5 1   
     7    4   11 1   
     8    4   15 2   
     9    5    9 2   
    10    5   38 1   
    11    6   10 1   
    12    6   12 1   
    13    6   39 1   
    14    6   40 1   
    15    7    8 1   
    16    7   11 1   
    17    7   41 1   
    18    7   82 1   
    19    8   13 1   
    20    8   42 1   
    21    8   43 1   
    22    9   44 1   
    23   10   15 1   
    24   10   45 1   
    25   10   46 1   
    26   11   12 1   
    27   11   47 1   
    28   12   48 1   
    29   12   49 1   
    30   13   28 1   
    31   13   50 1   
    32   13   51 1   
    33   14   16 1   
    34   14   20 1   
    35   14   21 2   
    36   16   17 1   
    37   16   81 1   
    38   17   18 2   
    39   17   22 1   
    40   18   19 1   
    41   18   23 1   
    42   19   20 2   
    43   19   84 1   
    44   20   52 1   
    45   22   25 1   
    46   22   53 1   
    47   22   54 1   
    48   23   24 1   
    49   23   26 1   
    50   23   55 1   
    51   24   25 1   
    52   24   56 1   
    53   24   57 1   
    54   25   58 1   
    55   25   59 1   
    56   26   27 1   
    57   26   60 1   
    58   26   83 1   
    59   27   36 1   
    60   27   61 1   
    61   27   62 1   
    62   28   29 1   
    63   28   63 1   
    64   28   64 1   
    65   29   30 1   
    66   29   65 1   
    67   29   66 1   
    68   30   31 1   
    69   30   67 1   
    70   30   68 1   
    71   31   32 1   
    72   31   69 1   
    73   31   70 1   
    74   32   33 1   
    75   32   71 1   
    76   32   72 1   
    77   33   34 1   
    78   33   73 1   
    79   33   74 1   
    80   34   35 1   
    81   34   75 1   
    82   34   76 1   
    83   35   36 1   
    84   35   77 1   
    85   35   78 1   
    86   36   79 1   
    87   36   80 1   
@<TRIPOS>SUBSTRUCTURE
     1 E12         1 TEMP              0 ****  ****    0 ROOT
