@<TRIPOS>MOLECULE
molecule
   37    37     1     0     0
SMALL
bcc


@<TRIPOS>ATOM
      1 O20          0.0000     0.0000     0.0000 o          1 E18      -0.724867
      2 S19          1.4210     0.0000     0.0000 s6         1 E18       1.562300
      3 O21          1.8510     0.0000     1.4600 o          1 E18      -0.724867
      4 O22          2.1990    -0.9980    -0.6480 o          1 E18      -0.724867
      5 O18          1.8500     1.3330    -0.5960 os         1 E18      -0.381200
      6 N17          3.2400     1.4300    -0.8510 n2         1 E18      -0.274200
      7 C13          3.7310     2.5130    -1.3570 c2         1 E18       0.364200
      8 S1           2.6570     3.8170    -1.8580 ss         1 E18      -0.238300
      9 C1           3.8580     4.9430    -2.6090 c3         1 E18      -0.029300
     10 C2           3.1530     6.2340    -3.0290 c3         1 E18       0.176800
     11 N18          4.1290     7.1480    -3.6380 n3         1 E18      -0.734600
     12 C20          4.6440     6.6030    -4.9020 c3         1 E18       0.151100
     13 C19          3.5470     8.4830    -3.8390 c3         1 E18       0.151100
     14 CB           5.2220     2.6610    -1.5190 c3         1 E18      -0.052400
     15 CG           5.9080     1.4160    -1.0180 ca         1 E18      -0.074300
     16 CD2          6.1500     0.3650    -1.8830 ca         1 E18      -0.101000
     17 CE2          6.7790    -0.7770    -1.4240 ca         1 E18      -0.120500
     18 CZ           7.1660    -0.8680    -0.0990 ca         1 E18      -0.124000
     19 CE1          6.9230     0.1820     0.7650 ca         1 E18      -0.120500
     20 CD1          6.2980     1.3260     0.3050 ca         1 E18      -0.101000
     21 HB1C         5.5640     3.5160    -0.9490 hc         1 E18       0.055200
     22 HB2C         5.4580     2.8070    -2.5660 hc         1 E18       0.055200
     23 H11C         4.6360     5.1730    -1.8900 h1         1 E18       0.062700
     24 H12C         4.2990     4.4730    -3.4800 h1         1 E18       0.062700
     25 H21C         2.3760     6.0040    -3.7480 h1         1 E18       0.045200
     26 H22C         2.7120     6.7040    -2.1590 h1         1 E18       0.045200
     27 H201         5.5340     6.0180    -4.7060 h1         1 E18       0.030533
     28 H202         3.8900     5.9720    -5.3570 h1         1 E18       0.030533
     29 H203         4.8860     7.4170    -5.5740 h1         1 E18       0.030533
     30 H191         4.3080     9.1560    -4.2140 h1         1 E18       0.030533
     31 H192         3.1670     8.8570    -2.8960 h1         1 E18       0.030533
     32 H193         2.7370     8.4190    -4.5560 h1         1 E18       0.030533
     33 HD2          5.8470     0.4360    -2.9210 ha         1 E18       0.126000
     34 HD1          6.1080     2.1490     0.9830 ha         1 E18       0.126000
     35 HE2          6.9690    -1.6010    -2.1010 ha         1 E18       0.121000
     36 HZ           7.6570    -1.7640     0.2610 ha         1 E18       0.118000
     37 HE1          7.2270     0.1120     1.8020 ha         1 E18       0.121000
@<TRIPOS>BOND
     1     1     2 1
     2     2     3 1
     3     2     4 1
     4     2     5 1
     5     5     6 1
     6     6     7 2
     7     7     8 1
     8     7    14 1
     9     8     9 1
    10     9    10 1
    11    10    11 1
    12    11    12 1
    13    11    13 1
    14    14    15 1
    15    15    16 ar
    16    15    20 ar
    17    16    17 ar
    18    17    18 ar
    19    18    19 ar
    20    19    20 ar
    21    14    21 1
    22    14    22 1
    23     9    23 1
    24     9    24 1
    25    10    25 1
    26    10    26 1
    27    12    27 1
    28    12    28 1
    29    12    29 1
    30    13    30 1
    31    13    31 1
    32    13    32 1
    33    16    33 1
    34    20    34 1
    35    17    35 1
    36    18    36 1
    37    19    37 1
@<TRIPOS>SUBSTRUCTURE
     1 E18         1 TEMP              0 ****  ****    0 ROOT
