@<TRIPOS>MOLECULE
E1B
   37    40     1     0     0
SMALL
bcc


@<TRIPOS>ATOM
      1 N1           0.0000     0.0000     0.0000 nb         1 E1B      -0.610000
      2 C2           1.3220     0.0000     0.0000 ca         1 E1B       0.587900
      3 N3           2.0350     0.0000     1.1060 nb         1 E1B      -0.618000
      4 C4           1.4300     0.0010     2.2900 ca         1 E1B       0.277300
      5 C5           0.0160     0.0010     2.3320 ca         1 E1B      -0.223600
      6 C6          -0.6900     0.0010     1.1280 ca         1 E1B       0.420200
      7 CAA          3.5250    -2.4510     8.9250 c1         1 E1B      -0.118500
      8 OAB         -3.7930    -0.0040     7.5880 o          1 E1B      -0.875800
      9 OAC         -1.7670    -0.0030     8.4940 o          1 E1B      -0.875800
     10 CAE          6.1840     0.4150     6.0780 ca         1 E1B      -0.145000
     11 CAG          5.6800    -0.3390     7.1180 ca         1 E1B      -0.116000
     12 CAH          5.4800     0.5280     4.8950 ca         1 E1B      -0.151000
     13 CAI         -2.6010     0.0000     5.0030 ca         1 E1B       0.000000
     14 CAJ         -2.0220     0.0010     3.7690 ca         1 E1B      -0.171000
     15 CAL          3.7480    -0.8870     5.7790 ca         1 E1B      -0.050000
     16 CAM         -0.4230     0.0010     6.0630 ca         1 E1B      -0.125300
     17 NAP          1.5270     0.0010     4.7010 nb         1 E1B      -0.594000
     18 CAS          4.4560    -0.9960     6.9740 ca         1 E1B       0.068000
     19 CAT          4.2580    -0.1170     4.7430 ca         1 E1B       0.044600
     20 CAU         -1.8070    -0.0010     6.1600 ca         1 E1B      -0.060600
     21 CAV          2.1660     0.0010     3.5570 ca         1 E1B       0.389900
     22 CAW          0.1860     0.0010     4.8010 ca         1 E1B       0.369600
     23 CAY         -0.6310     0.0010     3.6450 ca         1 E1B      -0.183300
     24 H2           1.8560     0.0130    -0.9430 h5         1 E1B      -0.009900
     25 H6          -1.7360    -0.1430     1.3700 h4         1 E1B       0.013100
     26 HAA          2.8380    -2.4390     9.7620 ha         1 E1B       0.145500
     27 HAE          7.0090     1.0920     6.2640 ha         1 E1B       0.099000
     28 HAG          6.3860    -0.2670     7.9350 ha         1 E1B       0.105000
     29 HAH          6.2140     1.0640     4.3050 ha         1 E1B       0.116000
     30 HAI         -3.6390     0.1490     4.7320 ha         1 E1B       0.112000
     31 HAJ         -2.4730     0.1710     2.7990 ha         1 E1B       0.097000
     32 HAL          3.2210    -1.8090     5.5660 ha         1 E1B       0.123000
     33 HAM          0.1990     0.1000     6.9440 ha         1 E1B       0.141000
     34 HNAQ         3.9820    -0.1490     2.6540 hn         1 E1B       0.293800
     35 NAQ          3.5490    -0.0000     3.5440 nu         1 E1B      -0.312300
     36 CAR         -2.4500    -0.0020     7.4890 c          1 E1B       0.966200
     37 CAD          3.9360    -1.7880     8.0470 cg         1 E1B      -0.127000
@<TRIPOS>BOND
     1     1     2 ar  
     2     1     6 ar  
     3     2     3 ar  
     4     2    24 1   
     5     3     4 ar  
     6     4     5 ar  
     7     4    21 ar  
     8     5     6 ar  
     9     5    23 ar  
    10     6    25 1   
    11     7    26 1   
    12     7    37 3   
    13     8    36 1   
    14     9    36 1   
    15    10    11 ar  
    16    10    12 ar  
    17    10    27 1   
    18    11    18 ar  
    19    11    28 1   
    20    12    19 ar  
    21    12    29 1   
    22    13    14 ar  
    23    13    20 ar  
    24    13    30 1   
    25    14    23 ar  
    26    14    31 1   
    27    15    18 ar  
    28    15    19 ar  
    29    15    32 1   
    30    16    20 ar  
    31    16    22 ar  
    32    16    33 1   
    33    17    21 ar  
    34    17    22 ar  
    35    18    37 1   
    36    19    35 1   
    37    20    36 1   
    38    21    35 1   
    39    22    23 ar  
    40    34    35 1   
@<TRIPOS>SUBSTRUCTURE
     1 E1B         1 TEMP              0 ****  ****    0 ROOT
