@<TRIPOS>MOLECULE
molecule
   37    40     1     0     0
SMALL
bcc


@<TRIPOS>ATOM
      1 N1           0.0000     0.0000     0.0000 nb         1 E1B      -0.728000
      2 C2           1.3220     0.0000     0.0000 ca         1 E1B       0.648900
      3 N3           2.0350     0.0000     1.1060 nb         1 E1B      -0.734000
      4 C4           1.4300     0.0010     2.2900 ca         1 E1B       0.314300
      5 C5           0.0160     0.0010     2.3320 ca         1 E1B      -0.237600
      6 C6          -0.6900     0.0010     1.1280 ca         1 E1B       0.452200
      7 CAA          3.5250    -2.4510     8.9250 c1         1 E1B      -0.140500
      8 OAB         -3.7930    -0.0040     7.5880 o          1 E1B      -0.825300
      9 OAC         -1.7670    -0.0030     8.4940 o          1 E1B      -0.825300
     10 CAE          6.1840     0.4150     6.0780 ca         1 E1B      -0.166000
     11 CAG          5.6800    -0.3390     7.1180 ca         1 E1B      -0.135000
     12 CAH          5.4800     0.5280     4.8950 ca         1 E1B      -0.168000
     13 CAI         -2.6010     0.0000     5.0030 ca         1 E1B      -0.045000
     14 CAJ         -2.0220     0.0010     3.7690 ca         1 E1B      -0.176000
     15 CAL          3.7480    -0.8870     5.7790 ca         1 E1B      -0.064000
     16 CAM         -0.4230     0.0010     6.0630 ca         1 E1B      -0.145300
     17 NAP          1.5270     0.0010     4.7010 nb         1 E1B      -0.718000
     18 CAS          4.4560    -0.9960     6.9740 ca         1 E1B       0.031000
     19 CAT          4.2580    -0.1170     4.7430 ca         1 E1B       0.188600
     20 CAU         -1.8070    -0.0010     6.1600 ca         1 E1B      -0.062600
     21 CAV          2.1660     0.0010     3.5570 ca         1 E1B       0.606900
     22 CAW          0.1860     0.0010     4.8010 ca         1 E1B       0.421600
     23 CAY         -0.6310     0.0010     3.6450 ca         1 E1B      -0.190300
     24 H2           1.8560     0.0130    -0.9430 h5         1 E1B       0.048100
     25 H6          -1.7360    -0.1430     1.3700 h4         1 E1B       0.051100
     26 HAA          2.8380    -2.4390     9.7620 ha         1 E1B       0.172500
     27 HAE          7.0090     1.0920     6.2640 ha         1 E1B       0.124000
     28 HAG          6.3860    -0.2670     7.9350 ha         1 E1B       0.129000
     29 HAH          6.2140     1.0640     4.3050 ha         1 E1B       0.137000
     30 HAI         -3.6390     0.1490     4.7320 ha         1 E1B       0.143000
     31 HAJ         -2.4730     0.1710     2.7990 ha         1 E1B       0.109000
     32 HAL          3.2210    -1.8090     5.5660 ha         1 E1B       0.153000
     33 HAM          0.1990     0.1000     6.9440 ha         1 E1B       0.173000
     34 HNAQ         3.9820    -0.1490     2.6540 hn         1 E1B       0.460800
     35 NAQ          3.5490    -0.0000     3.5440 nu         1 E1B      -0.760300
     36 CAR         -2.4500    -0.0020     7.4890 c          1 E1B       0.879200
     37 CAD          3.9360    -1.7880     8.0470 cg         1 E1B      -0.119000
@<TRIPOS>BOND
     1     1     6 ar
     2     1     2 ar
     3     2     3 ar
     4     2    24 1
     5     3     4 ar
     6     5     4 ar
     7     4    21 ar
     8     6     5 ar
     9     5    23 ar
    10     6    25 1
    11    37     7 3
    12     7    26 1
    13    36     8 1
    14     9    36 1
    15    18    37 1
    16    12    10 ar
    17    10    11 ar
    18    10    27 1
    19    18    11 ar
    20    11    28 1
    21    19    12 ar
    22    12    29 1
    23    14    13 ar
    24    13    20 ar
    25    13    30 1
    26    14    23 ar
    27    14    31 1
    28    19    15 ar
    29    15    18 ar
    30    15    32 1
    31    20    16 ar
    32    22    16 ar
    33    16    33 1
    34    22    17 ar
    35    21    17 ar
    36    21    35 1
    37    35    19 1
    38    35    34 1
    39    20    36 1
    40    23    22 ar
@<TRIPOS>SUBSTRUCTURE
     1 E1B         1 TEMP              0 ****  ****    0 ROOT
