@<TRIPOS>MOLECULE
molecule
   39    41     1     0     0
SMALL
bcc


@<TRIPOS>ATOM
      1 C4           0.0000     0.0000     0.0000 ca         1 E1D      -0.258000
      2 C14         -0.4610     1.0030     5.9870 ca         1 E1D       0.154900
      3 C5           1.3990     0.0000     0.0000 ca         1 E1D       0.666200
      4 C6          -0.0250    -0.3670    -2.3370 c          1 E1D       0.706500
      5 C11          1.8400    -0.5400     5.8440 ca         1 E1D      -0.196500
      6 C7           1.4190    -0.7810    -2.2310 c3         1 E1D       0.108500
      7 C10          2.1120    -0.5490    -3.5750 c3         1 E1D      -0.083100
      8 C12          1.1580    -0.4270     7.0420 ca         1 E1D       0.154900
      9 C13          0.0060     0.3450     7.1160 ca         1 E1D       0.006100
     10 N2           0.0380    -0.0020     2.3310 nb         1 E1D      -0.786000
     11 C3          -0.6710    -0.0030     1.2090 ca         1 E1D       0.480200
     12 N3           2.0390     0.0000     1.1640 nb         1 E1D      -0.812000
     13 C1           1.3700     0.1150     4.7130 ca         1 E1D       0.209600
     14 C2           1.3610     0.0020     2.3030 ca         1 E1D       0.937900
     15 N4          -0.6950    -0.0040    -1.2190 n          1 E1D      -0.367000
     16 N5           2.0980     0.0040    -1.1940 nh         1 E1D      -0.685300
     17 O1          -0.5820    -0.3610    -3.4140 o          1 E1D      -0.616500
     18 C15          0.2180     0.8870     4.7870 ca         1 E1D      -0.196500
     19 O2          -0.6630     0.4560     8.2940 oh         1 E1D      -0.494100
     20 F2           1.6170    -1.0640     8.1420 f          1 E1D      -0.123400
     21 H1           2.7390    -1.1420     5.7870 ha         1 E1D       0.165500
     22 H2           1.4710    -1.8320    -1.9730 h1         1 E1D       0.061700
     23 H9           3.0490    -1.0930    -3.5970 hc         1 E1D       0.057367
     24 H10          1.4720    -0.8980    -4.3760 hc         1 E1D       0.057367
     25 H11          2.3070     0.5090    -3.7030 hc         1 E1D       0.057367
     26 H13         -1.7530    -0.0060     1.2390 h4         1 E1D       0.041100
     27 H14         -0.1480     1.4000     3.9060 ha         1 E1D       0.165500
     28 H15         -0.3290     1.1930     8.7780 ho         1 E1D       0.420000
     29 C8          -2.1080     0.3760    -1.2790 c3         1 E1D       0.093300
     30 C9           3.4760    -0.4610    -0.9990 c3         1 E1D       0.159100
     31 N1           2.0600     0.0010     3.5000 nu         1 E1D      -0.754300
     32 F1          -1.5810     1.7540     6.0580 f          1 E1D      -0.123400
     33 H3          -2.3970     0.5300    -2.3120 h1         1 E1D       0.053700
     34 H4          -2.2600     1.2920    -0.7210 h1         1 E1D       0.053700
     35 H5          -2.7130    -0.4130    -0.8500 h1         1 E1D       0.053700
     36 H6           4.0510    -0.2740    -1.8980 h1         1 E1D       0.052700
     37 H7           3.4730    -1.5240    -0.7870 h1         1 E1D       0.052700
     38 H8           3.9230     0.0710    -0.1680 h1         1 E1D       0.052700
     39 H12          3.0600    -0.0390     3.4960 hn         1 E1D       0.471800
@<TRIPOS>BOND
     1    20     8 1
     2    10    11 ar
     3    10    14 ar
     4     5     8 ar
     5     5    13 ar
     6    31    14 1
     7    31    13 1
     8    11     1 ar
     9     8     9 ar
    10    14    12 ar
    11    13    18 ar
    12    29    15 1
    13     1    15 1
    14     1     3 ar
    15     9    19 1
    16     9     2 ar
    17    12     3 ar
    18    15     4 1
    19    18     2 ar
    20     3    16 1
    21     2    32 1
    22     4    17 2
    23     4     6 1
    24    16     6 1
    25    16    30 1
    26     6     7 1
    27     5    21 1
    28     6    22 1
    29    29    33 1
    30    29    34 1
    31    29    35 1
    32    30    36 1
    33    30    37 1
    34    30    38 1
    35     7    23 1
    36     7    24 1
    37     7    25 1
    38    31    39 1
    39    11    26 1
    40    18    27 1
    41    19    28 1
@<TRIPOS>SUBSTRUCTURE
     1 E1D         1 TEMP              0 ****  ****    0 ROOT
