@<TRIPOS>MOLECULE
E1E
   38    39     1     0     0
SMALL
bcc


@<TRIPOS>ATOM
      1 C2           0.0000     0.0000     0.0000 ca         1 E1E      -0.042000
      2 C4           2.0750     0.0000     1.1980 ca         1 E1E      -0.207500
      3 C5           1.3940     0.0110     2.4030 ca         1 E1E       0.032000
      4 C3           1.3790     0.0000     0.0000 ca         1 E1E       0.008400
      5 S6           3.8380    -0.0010     1.1880 sy         1 E1E       0.940200
      6 O8           4.2460    -0.0350     2.5490 o          1 E1E      -0.489800
      7 N11          4.3240    -1.4350     0.5180 nz         1 E1E      -0.144500
      8 O7           4.2340     1.0200     0.2830 o          1 E1E      -0.489800
      9 C22         -0.6960     0.0060     1.2140 ca         1 E1E      -0.062600
     10 C1           0.0150     0.0120     2.4180 ca         1 E1E      -0.079000
     11 C9          -2.1680     0.0070     1.2230 c          1 E1E       0.608700
     12 O12         -2.7800     0.0030     0.1770 o          1 E1E      -0.478100
     13 C10         -2.9120     0.0140     2.5320 c3         1 E1E      -0.031300
     14 S13         -4.6940     0.0140     2.2130 ss         1 E1E      -0.313400
     15 C14         -5.3010     0.0220     3.8680 ca         1 E1E       0.737300
     16 N17         -6.6100     0.0240     4.0760 nb         1 E1E      -0.630000
     17 C18         -7.0990     0.0300     5.3050 ca         1 E1E       0.434600
     18 C21         -8.5880     0.0310     5.5330 c3         1 E1E      -0.042900
     19 C19         -6.2250     0.0340     6.3810 ca         1 E1E      -0.341600
     20 C16         -4.8610     0.0320     6.1260 ca         1 E1E       0.434600
     21 N15         -4.4390     0.0210     4.8740 nb         1 E1E      -0.630000
     22 C20         -3.8740     0.0300     7.2650 c3         1 E1E      -0.042900
     23 H1          -0.5430    -0.0020    -0.9370 ha         1 E1E       0.159000
     24 H2           1.9450     0.0130     3.3350 ha         1 E1E       0.142000
     25 H3           5.2820    -1.6050     0.7510 hn         1 E1E       0.317800
     26 H4           3.7570    -2.1790     0.8740 hn         1 E1E       0.317800
     27 H5          -0.5170     0.0180     3.3620 ha         1 E1E       0.143000
     28 H6          -2.6460     0.9010     3.0940 h1         1 E1E       0.070200
     29 H7          -2.6470    -0.8680     3.1030 h1         1 E1E       0.070200
     30 H8          -9.1000     0.0260     4.5790 hc         1 E1E       0.021367
     31 H9          -8.8680    -0.8500     6.0980 hc         1 E1E       0.021367
     32 H10         -8.8680     0.9190     6.0880 hc         1 E1E       0.021367
     33 H11         -6.5980     0.0410     7.3970 ha         1 E1E       0.135000
     34 H12         -4.0920     0.8530     7.9340 hc         1 E1E       0.021367
     35 H13         -3.9490    -0.9060     7.8070 hc         1 E1E       0.021367
     36 H14         -2.8700     0.1400     6.8730 hc         1 E1E       0.021367
     37 Cl1          2.2450    -0.0010    -1.5040 cl         1 E1E       0.032600
     38 H113         4.2260    -1.3880    -0.4770 hn         1 E1E       0.317800
@<TRIPOS>BOND
     1     1     4 ar  
     2     1     9 ar  
     3     1    23 1   
     4     2     3 ar  
     5     2     4 ar  
     6     2     5 1   
     7     3    10 ar  
     8     3    24 1   
     9     4    37 1   
    10     5     6 2   
    11     5     7 1   
    12     5     8 2   
    13     7    25 1   
    14     7    26 1   
    15     7    38 1   
    16     9    10 ar  
    17     9    11 1   
    18    10    27 1   
    19    11    12 2   
    20    11    13 1   
    21    13    14 1   
    22    13    28 1   
    23    13    29 1   
    24    14    15 1   
    25    15    16 ar  
    26    15    21 ar  
    27    16    17 ar  
    28    17    18 1   
    29    17    19 ar  
    30    18    30 1   
    31    18    31 1   
    32    18    32 1   
    33    19    20 ar  
    34    19    33 1   
    35    20    21 ar  
    36    20    22 1   
    37    22    34 1   
    38    22    35 1   
    39    22    36 1   
@<TRIPOS>SUBSTRUCTURE
     1 E1E         1 TEMP              0 ****  ****    0 ROOT
