@<TRIPOS>MOLECULE
molecule
   38    39     1     0     0
SMALL
bcc


@<TRIPOS>ATOM
      1 C2           0.0000     0.0000     0.0000 ca         1 E1E      -0.067000
      2 C4           2.0750     0.0000     1.1980 ca         1 E1E      -0.325500
      3 C5           1.3940     0.0110     2.4030 ca         1 E1E      -0.012000
      4 C3           1.3790     0.0000     0.0000 ca         1 E1E       0.077400
      5 S6           3.8380    -0.0010     1.1880 sy         1 E1E       1.240200
      6 O8           4.2460    -0.0350     2.5490 o          1 E1E      -0.509300
      7 N11          4.3240    -1.4350     0.5180 nz         1 E1E      -0.810500
      8 O7           4.2340     1.0200     0.2830 o          1 E1E      -0.509300
      9 C22         -0.6960     0.0060     1.2140 ca         1 E1E      -0.061600
     10 C1           0.0150     0.0120     2.4180 ca         1 E1E      -0.099000
     11 C9          -2.1680     0.0070     1.2230 c          1 E1E       0.568700
     12 O12         -2.7800     0.0030     0.1770 o          1 E1E      -0.458100
     13 C10         -2.9120     0.0140     2.5320 c3         1 E1E      -0.131300
     14 S13         -4.6940     0.0140     2.2130 ss         1 E1E      -0.160400
     15 C14         -5.3010     0.0220     3.8680 ca         1 E1E       0.775300
     16 N17         -6.6100     0.0240     4.0760 nb         1 E1E      -0.753000
     17 C18         -7.0990     0.0300     5.3050 ca         1 E1E       0.484100
     18 C21         -8.5880     0.0310     5.5330 c3         1 E1E      -0.145900
     19 C19         -6.2250     0.0340     6.3810 ca         1 E1E      -0.380600
     20 C16         -4.8610     0.0320     6.1260 ca         1 E1E       0.484100
     21 N15         -4.4390     0.0210     4.8740 nb         1 E1E      -0.753000
     22 C20         -3.8740     0.0300     7.2650 c3         1 E1E      -0.145900
     23 H1          -0.5430    -0.0020    -0.9370 ha         1 E1E       0.197000
     24 H2           1.9450     0.0130     3.3350 ha         1 E1E       0.177000
     25 H3           5.2820    -1.6050     0.7510 hn         1 E1E       0.495133
     26 H4           3.7570    -2.1790     0.8740 hn         1 E1E       0.495133
     27 H5          -0.5170     0.0180     3.3620 ha         1 E1E       0.178000
     28 H6          -2.6460     0.9010     3.0940 h1         1 E1E       0.102200
     29 H7          -2.6470    -0.8680     3.1030 h1         1 E1E       0.102200
     30 H8          -9.1000     0.0260     4.5790 hc         1 E1E       0.060700
     31 H9          -8.8680    -0.8500     6.0980 hc         1 E1E       0.060700
     32 H10         -8.8680     0.9190     6.0880 hc         1 E1E       0.060700
     33 H11         -6.5980     0.0410     7.3970 ha         1 E1E       0.155000
     34 H12         -4.0920     0.8530     7.9340 hc         1 E1E       0.060700
     35 H13         -3.9490    -0.9060     7.8070 hc         1 E1E       0.060700
     36 H14         -2.8700     0.1400     6.8730 hc         1 E1E       0.060700
     37 Cl1          2.2450    -0.0010    -1.5040 cl         1 E1E      -0.071400
     38 H113         4.2260    -1.3880    -0.4770 hn         1 E1E       0.495133
@<TRIPOS>BOND
     1    22    20 1
     2    20    21 ar
     3    20    19 ar
     4    21    15 ar
     5    19    17 ar
     6    15    14 1
     7    15    16 ar
     8    14    13 1
     9    17    16 ar
    10    17    18 1
    11    13    11 1
    12    11    12 2
    13    11     9 1
    14    10     9 ar
    15    10     3 ar
    16     9     1 ar
    17     3     2 ar
    18     1     4 ar
    19     2     4 ar
    20     2     5 1
    21     4    37 1
    22     7     5 1
    23     6     5 2
    24     5     8 2
    25     1    23 1
    26     3    24 1
    27     7    25 1
    28     7    26 1
    29    10    27 1
    30    13    28 1
    31    13    29 1
    32    18    30 1
    33    18    31 1
    34    18    32 1
    35    19    33 1
    36    22    34 1
    37    22    35 1
    38    22    36 1
    39    38     7 1
@<TRIPOS>SUBSTRUCTURE
     1 E1E         1 TEMP              0 ****  ****    0 ROOT
