@<TRIPOS>MOLECULE
E1F
   32    33     1     0     0
SMALL
bcc


@<TRIPOS>ATOM
      1 O18          0.0000     0.0000     0.0000 o          1 E1F      -0.489800
      2 C13          7.0770     7.6620    -6.7710 ca         1 E1F       0.460700
      3 C1           2.6990     3.9690    -1.7760 ca         1 E1F      -0.063600
      4 C2           1.3500     2.7200    -0.2300 ca         1 E1F       0.008400
      5 Cl1          0.1500     2.6690     1.0250 cl         1 E1F       0.032600
      6 C21          1.7330     3.9310    -0.7660 ca         1 E1F      -0.042000
      7 C5           3.2700     2.7770    -2.2340 ca         1 E1F      -0.079000
      8 C4           2.8750     1.5730    -1.6890 ca         1 E1F       0.031000
      9 C3           1.9190     1.5430    -0.6900 ca         1 E1F      -0.207500
     10 S16          1.4210     0.0000     0.0000 sy         1 E1F       0.941200
     11 N19          1.8880     0.0000     1.5890 nz         1 E1F      -0.144500
     12 O17          2.1990    -0.9980    -0.6460 o          1 E1F      -0.489800
     13 O12          2.6120     6.2890    -1.9620 o          1 E1F      -0.478100
     14 C7           4.1530     5.2930    -3.4470 c3         1 E1F      -0.031300
     15 S8           4.4400     7.0080    -3.9490 ss         1 E1F      -0.308400
     16 C9           5.6640     6.7620    -5.1930 ca         1 E1F       0.730300
     17 N11          6.0680     5.5300    -5.4680 nb         1 E1F      -0.631500
     18 C14          6.9880     5.3110    -6.3920 ca         1 E1F       0.460700
     19 C15          7.5260     6.3880    -7.0800 ca         1 E1F      -0.332600
     20 N10          6.1580     7.8130    -5.8320 nb         1 E1F      -0.631500
     21 H2           1.2870     4.8510    -0.4060 ha         1 E1F       0.160000
     22 H3           4.0190     2.7990    -3.0160 ha         1 E1F       0.143000
     23 H4           3.3160     0.6490    -2.0430 ha         1 E1F       0.143000
     24 H5           1.8870    -0.9380     1.9370 hn         1 E1F       0.317133
     25 H6           2.8090     0.3830     1.6660 hn         1 E1F       0.317133
     26 H7           3.8060     4.7210    -4.2980 h1         1 E1F       0.069700
     27 H8           5.0770     4.8660    -3.0760 h1         1 E1F       0.069700
     28 H9           7.4290     4.3270    -6.4950 h4         1 E1F      -0.006900
     29 H10          8.1040     6.2210    -7.9810 ha         1 E1F       0.132000
     30 H193         1.2540     0.5610     2.1230 hn         1 E1F       0.317133
     31 C6           3.1110     5.2570    -2.3580 c          1 E1F       0.608700
     32 H1           7.4420     8.5880    -7.1990 h4         1 E1F      -0.006900
@<TRIPOS>BOND
     1     1    10 2   
     2     2    19 ar  
     3     2    20 ar  
     4     2    32 1   
     5     3     6 ar  
     6     3     7 ar  
     7     3    31 1   
     8     4     5 1   
     9     4     6 ar  
    10     4     9 ar  
    11     6    21 1   
    12     7     8 ar  
    13     7    22 1   
    14     8     9 ar  
    15     8    23 1   
    16     9    10 1   
    17    10    11 1   
    18    10    12 2   
    19    11    24 1   
    20    11    25 1   
    21    11    30 1   
    22    13    31 2   
    23    14    15 1   
    24    14    26 1   
    25    14    27 1   
    26    14    31 1   
    27    15    16 1   
    28    16    17 ar  
    29    16    20 ar  
    30    17    18 ar  
    31    18    19 ar  
    32    18    28 1   
    33    19    29 1   
@<TRIPOS>SUBSTRUCTURE
     1 E1F         1 TEMP              0 ****  ****    0 ROOT
