@<TRIPOS>MOLECULE
molecule
   32    33     1     0     0
SMALL
bcc


@<TRIPOS>ATOM
      1 O18          0.0000     0.0000     0.0000 o          1 E1F      -0.508300
      2 C13          7.0770     7.6620    -6.7710 ca         1 E1F       0.472200
      3 C1           2.6990     3.9690    -1.7760 ca         1 E1F      -0.062600
      4 C2           1.3500     2.7200    -0.2300 ca         1 E1F       0.078400
      5 Cl1          0.1500     2.6690     1.0250 cl         1 E1F      -0.071400
      6 C21          1.7330     3.9310    -0.7660 ca         1 E1F      -0.067000
      7 C5           3.2700     2.7770    -2.2340 ca         1 E1F      -0.098000
      8 C4           2.8750     1.5730    -1.6890 ca         1 E1F      -0.012000
      9 C3           1.9190     1.5430    -0.6900 ca         1 E1F      -0.325500
     10 S16          1.4210     0.0000     0.0000 sy         1 E1F       1.241200
     11 N19          1.8880     0.0000     1.5890 nz         1 E1F      -0.810500
     12 O17          2.1990    -0.9980    -0.6460 o          1 E1F      -0.508300
     13 O12          2.6120     6.2890    -1.9620 o          1 E1F      -0.458100
     14 C7           4.1530     5.2930    -3.4470 c3         1 E1F      -0.131300
     15 S8           4.4400     7.0080    -3.9490 ss         1 E1F      -0.155400
     16 C9           5.6640     6.7620    -5.1930 ca         1 E1F       0.763300
     17 N11          6.0680     5.5300    -5.4680 nb         1 E1F      -0.745500
     18 C14          6.9880     5.3110    -6.3920 ca         1 E1F       0.472200
     19 C15          7.5260     6.3880    -7.0800 ca         1 E1F      -0.375600
     20 N10          6.1580     7.8130    -5.8320 nb         1 E1F      -0.745500
     21 H2           1.2870     4.8510    -0.4060 ha         1 E1F       0.198000
     22 H3           4.0190     2.7990    -3.0160 ha         1 E1F       0.178000
     23 H4           3.3160     0.6490    -2.0430 ha         1 E1F       0.178000
     24 H5           1.8870    -0.9380     1.9370 hn         1 E1F       0.495133
     25 H6           2.8090     0.3830     1.6660 hn         1 E1F       0.495133
     26 H7           3.8060     4.7210    -4.2980 h1         1 E1F       0.102200
     27 H8           5.0770     4.8660    -3.0760 h1         1 E1F       0.102200
     28 H9           7.4290     4.3270    -6.4950 h4         1 E1F       0.039600
     29 H10          8.1040     6.2210    -7.9810 ha         1 E1F       0.157000
     30 H193         1.2540     0.5610     2.1230 hn         1 E1F       0.495133
     31 C6           3.1110     5.2570    -2.3580 c          1 E1F       0.568700
     32 H1           7.4420     8.5880    -7.1990 h4         1 E1F       0.039600
@<TRIPOS>BOND
     1    15    16 1
     2    15    14 1
     3    17    16 ar
     4    17    18 ar
     5    16    20 ar
     6    14    31 1
     7    13    31 2
     8    18    19 ar
     9    31     3 1
    10     7     3 ar
    11     7     8 ar
    12     3     6 ar
    13    20     2 ar
    14    19     2 ar
    15     8     9 ar
    16     6     4 ar
    17     9     4 ar
    18     9    10 1
    19     4     5 1
    20    11    10 1
    21    12    10 2
    22    10     1 2
    23     2    32 1
    24     6    21 1
    25     7    22 1
    26     8    23 1
    27    11    24 1
    28    11    25 1
    29    14    26 1
    30    14    27 1
    31    18    28 1
    32    19    29 1
    33    30    11 1
@<TRIPOS>SUBSTRUCTURE
     1 E1F         1 TEMP              0 ****  ****    0 ROOT
