@<TRIPOS>MOLECULE
E1G
   32    33     1     0     0
SMALL
bcc


@<TRIPOS>ATOM
      1 O19          0.0000     0.0000     0.0000 o          1 E1G      -0.490800
      2 S17          1.4220     0.0000     0.0000 sy         1 E1G       0.937200
      3 O18          2.1980     0.0000     1.1910 o          1 E1G      -0.490800
      4 N20          1.8900    -1.3330    -0.8630 nz         1 E1G      -0.130500
      5 C4           1.9190     1.4180    -0.9190 ca         1 E1G      -0.240500
      6 C5           1.0600     1.9740    -1.8500 ca         1 E1G       0.031000
      7 C6           1.4420     3.0880    -2.5770 ca         1 E1G      -0.113000
      8 C1           2.6840     3.6530    -2.3780 ca         1 E1G       0.035000
      9 C3           3.1620     1.9750    -0.7040 ca         1 E1G       0.068000
     10 C2           3.5580     3.0980    -1.4380 ca         1 E1G      -0.184600
     11 C7           4.8840     3.6980    -1.2150 c          1 E1G       0.628700
     12 O13          5.6360     3.2190    -0.3930 o          1 E1G      -0.502100
     13 C8           5.3060     4.9080    -2.0090 c3         1 E1G      -0.031300
     14 S9           6.9730     5.4050    -1.5090 ss         1 E1G      -0.312400
     15 C10          7.2050     6.7980    -2.5630 ca         1 E1G       0.729300
     16 N12          6.2340     7.1510    -3.3920 nb         1 E1G      -0.625500
     17 C15          6.3760     8.1910    -4.1970 ca         1 E1G       0.461700
     18 C16          7.5590     8.9140    -4.1640 ca         1 E1G      -0.340600
     19 C14          8.5540     8.5180    -3.2840 ca         1 E1G       0.461700
     20 N11          8.3450     7.4710    -2.5030 nb         1 E1G      -0.625500
     21 H1           2.8830    -1.3220    -0.9820 hn         1 E1G       0.314467
     22 H2           1.4460    -1.3230    -1.7600 hn         1 E1G       0.314467
     23 H3           0.0830     1.5350    -2.0110 ha         1 E1G       0.126000
     24 H4           0.7640     3.5170    -3.3050 ha         1 E1G       0.135000
     25 H5           2.9820     4.5240    -2.9500 ha         1 E1G       0.133000
     26 H6           3.8340     1.5390     0.0260 ha         1 E1G       0.146000
     27 H7           5.3020     4.6660    -3.0650 h1         1 E1G       0.070200
     28 H8           4.6150     5.7210    -1.8220 h1         1 E1G       0.070200
     29 H9           5.5780     8.4750    -4.8730 h4         1 E1G      -0.007900
     30 H10          7.7030     9.7690    -4.8130 ha         1 E1G       0.132000
     31 H11          9.4890     9.0620    -3.2330 h4         1 E1G      -0.007900
     32 H203         1.6180    -2.1610    -0.3710 hn         1 E1G       0.314467
@<TRIPOS>BOND
     1     1     2 2   
     2     2     3 2   
     3     2     4 1   
     4     2     5 1   
     5     4    21 1   
     6     4    22 1   
     7     4    32 1   
     8     5     6 ar  
     9     5     9 ar  
    10     6     7 ar  
    11     6    23 1   
    12     7     8 ar  
    13     7    24 1   
    14     8    10 ar  
    15     8    25 1   
    16     9    10 ar  
    17     9    26 1   
    18    10    11 1   
    19    11    12 2   
    20    11    13 1   
    21    13    14 1   
    22    13    27 1   
    23    13    28 1   
    24    14    15 1   
    25    15    16 ar  
    26    15    20 ar  
    27    16    17 ar  
    28    17    18 ar  
    29    17    29 1   
    30    18    19 ar  
    31    18    30 1   
    32    19    20 ar  
    33    19    31 1   
@<TRIPOS>SUBSTRUCTURE
     1 E1G         1 TEMP              0 ****  ****    0 ROOT
