@<TRIPOS>MOLECULE
E1H
    8     7     1     0     0
SMALL
bcc


@<TRIPOS>ATOM
      1 N1           0.0000     0.0000     0.0000 n2         1 E1H      -0.651100
      2 CA1          1.2800     0.0000     0.0000 c2         1 E1H       0.401200
      3 CB1          2.0330     0.0000     1.3050 c3         1 E1H      -0.088400
      4 HN11        -0.5000     0.0000     0.8670 hn         1 E1H       0.312400
      5 HA12         1.8210     0.0000    -0.9380 h4         1 E1H      -0.015200
      6 HB11         3.0980     0.0000     1.1080 hc         1 E1H       0.013700
      7 HB12         1.7710     0.8840     1.8730 hc         1 E1H       0.013700
      8 HB13         1.7710    -0.8850     1.8730 hc         1 E1H       0.013700
@<TRIPOS>BOND
     1     1     2 2   
     2     1     4 1   
     3     2     3 1   
     4     2     5 1   
     5     3     6 1   
     6     3     7 1   
     7     3     8 1   
@<TRIPOS>SUBSTRUCTURE
     1 E1H         1 TEMP              0 ****  ****    0 ROOT
