@<TRIPOS>MOLECULE
E1K
   33    35     1     0     0
SMALL
bcc


@<TRIPOS>ATOM
      1 CAA          0.0000     0.0000     0.0000 c3         1 E1K      -0.029400
      2 CAB          1.5320     0.0000     0.0000 c3         1 E1K      -0.020400
      3 CAC          2.0160     0.0000     1.4480 c3         1 E1K       0.010900
      4 CAD          1.3520    -1.1070     2.2300 ca         1 E1K      -0.157600
      5 CAF          1.4290    -2.4240     4.1500 ca         1 E1K      -0.184300
      6 CAG          2.0610    -2.7810     5.3540 ca         1 E1K      -0.144000
      7 CAH          1.5270    -3.7650     6.1320 ca         1 E1K       0.016400
      8 CAI          0.3600    -4.4270     5.7520 ca         1 E1K      -0.061000
      9 CAJ         -0.2780    -4.1060     4.5920 ca         1 E1K      -0.037000
     10 CAK          0.2450    -3.1000     3.7690 ca         1 E1K      -0.069000
     11 CAL         -0.3810    -2.7350     2.5560 ca         1 E1K       0.160600
     12 CAM          0.1960    -1.7260     1.7900 ca         1 E1K      -0.109300
     13 CAN         -0.4800    -1.3630     0.4940 c3         1 E1K       0.036900
     14 NAE          1.9240    -1.4640     3.3680 na         1 E1K       0.623900
     15 NAO         -1.5420    -3.3680     2.1390 nv         1 E1K      -0.554200
     16 ClA          2.3130    -4.2010     7.6160 cl         1 E1K       0.073600
     17 H1          -0.3640     0.1710    -1.0060 hc         1 E1K       0.035200
     18 H2          -0.3640     0.7760     0.6630 hc         1 E1K       0.035200
     19 H3           1.8960    -0.8870    -0.5040 hc         1 E1K       0.037200
     20 H4           1.8960     0.8870    -0.5040 hc         1 E1K       0.037200
     21 H5           3.0890    -0.1470     1.4640 hc         1 E1K       0.047200
     22 H6           1.7740     0.9520     1.9040 hc         1 E1K       0.047200
     23 H7           2.9680    -2.2760     5.6620 ha         1 E1K       0.145000
     24 H8          -0.0440    -5.2050     6.3880 ha         1 E1K       0.139000
     25 H9          -1.1840    -4.6270     4.3070 ha         1 E1K       0.135000
     26 H10         -1.5520    -1.3280     0.6490 hc         1 E1K       0.043200
     27 H11         -0.2470    -2.1140    -0.2520 hc         1 E1K       0.043200
     28 H12          4.0100    -1.3080     3.4000 h1         1 E1K       0.065700
     29 H13          3.1450     0.2350     3.3980 h1         1 E1K       0.065700
     30 H14          3.1960    -0.7490     4.8680 h1         1 E1K       0.065700
     31 H15         -1.4880    -4.1870     1.5670 hn         1 E1K       0.307800
     32 H16         -2.4340    -3.0200     2.4320 hn         1 E1K       0.307800
     33 CAP          3.1480    -0.7770     3.7860 c3         1 E1K      -0.114400
@<TRIPOS>BOND
     1     1     2 1   
     2     1    13 1   
     3     1    17 1   
     4     1    18 1   
     5     2     3 1   
     6     2    19 1   
     7     2    20 1   
     8     3     4 1   
     9     3    21 1   
    10     3    22 1   
    11     4    12 ar  
    12     4    14 2   
    13     5     6 ar  
    14     5    10 ar  
    15     5    14 1   
    16     6     7 ar  
    17     6    23 1   
    18     7     8 ar  
    19     7    16 1   
    20     8     9 ar  
    21     8    24 1   
    22     9    10 ar  
    23     9    25 1   
    24    10    11 ar  
    25    11    12 ar  
    26    11    15 1   
    27    12    13 1   
    28    13    26 1   
    29    13    27 1   
    30    14    33 1   
    31    15    31 1   
    32    15    32 1   
    33    28    33 1   
    34    29    33 1   
    35    30    33 1   
@<TRIPOS>SUBSTRUCTURE
     1 E1K         1 TEMP              0 ****  ****    0 ROOT
