@<TRIPOS>MOLECULE
molecule
   33    35     1     0     0
SMALL
bcc


@<TRIPOS>ATOM
      1 CAA          0.0000     0.0000     0.0000 c3         1 E1K      -0.089400
      2 CAB          1.5320     0.0000     0.0000 c3         1 E1K      -0.079400
      3 CAC          2.0160     0.0000     1.4480 c3         1 E1K      -0.064100
      4 CAD          1.3520    -1.1070     2.2300 ca         1 E1K       0.076400
      5 CAF          1.4290    -2.4240     4.1500 ca         1 E1K       0.032700
      6 CAG          2.0610    -2.7810     5.3540 ca         1 E1K      -0.173000
      7 CAH          1.5270    -3.7650     6.1320 ca         1 E1K       0.103400
      8 CAI          0.3600    -4.4270     5.7520 ca         1 E1K      -0.113000
      9 CAJ         -0.2780    -4.1060     4.5920 ca         1 E1K      -0.054000
     10 CAK          0.2450    -3.1000     3.7690 ca         1 E1K      -0.107000
     11 CAL         -0.3810    -2.7350     2.5560 ca         1 E1K       0.319600
     12 CAM          0.1960    -1.7260     1.7900 ca         1 E1K      -0.149300
     13 CAN         -0.4800    -1.3630     0.4940 c3         1 E1K      -0.025100
     14 NAE          1.9240    -1.4640     3.3680 na         1 E1K       0.033900
     15 NAO         -1.5420    -3.3680     2.1390 nv         1 E1K      -0.989200
     16 ClA          2.3130    -4.2010     7.6160 cl         1 E1K      -0.028400
     17 H1          -0.3640     0.1710    -1.0060 hc         1 E1K       0.067700
     18 H2          -0.3640     0.7760     0.6630 hc         1 E1K       0.067700
     19 H3           1.8960    -0.8870    -0.5040 hc         1 E1K       0.071200
     20 H4           1.8960     0.8870    -0.5040 hc         1 E1K       0.071200
     21 H5           3.0890    -0.1470     1.4640 hc         1 E1K       0.084200
     22 H6           1.7740     0.9520     1.9040 hc         1 E1K       0.084200
     23 H7           2.9680    -2.2760     5.6620 ha         1 E1K       0.171000
     24 H8          -0.0440    -5.2050     6.3880 ha         1 E1K       0.178000
     25 H9          -1.1840    -4.6270     4.3070 ha         1 E1K       0.174000
     26 H10         -1.5520    -1.3280     0.6490 hc         1 E1K       0.077200
     27 H11         -0.2470    -2.1140    -0.2520 hc         1 E1K       0.077200
     28 H12          4.0100    -1.3080     3.4000 h1         1 E1K       0.091367
     29 H13          3.1450     0.2350     3.3980 h1         1 E1K       0.091367
     30 H14          3.1960    -0.7490     4.8680 h1         1 E1K       0.091367
     31 H15         -1.4880    -4.1870     1.5670 hn         1 E1K       0.465300
     32 H16         -2.4340    -3.0200     2.4320 hn         1 E1K       0.465300
     33 CAP          3.1480    -0.7770     3.7860 c3         1 E1K      -0.024400
@<TRIPOS>BOND
     1    15    11 1
     2     9     8 ar
     3     9    10 ar
     4    11    10 ar
     5    11    12 ar
     6     8     7 ar
     7    13    12 1
     8    13     1 1
     9    10     5 ar
    10    12     4 ar
    11     1     2 1
    12     7    16 1
    13     7     6 ar
    14     5     6 ar
    15     5    14 1
    16     4    14 2
    17     4     3 1
    18    14    33 1
    19     2     3 1
    20     1    17 1
    21     1    18 1
    22     2    19 1
    23     2    20 1
    24     3    21 1
    25     3    22 1
    26     6    23 1
    27     8    24 1
    28     9    25 1
    29    13    26 1
    30    13    27 1
    31    33    28 1
    32    33    29 1
    33    33    30 1
    34    15    31 1
    35    15    32 1
@<TRIPOS>SUBSTRUCTURE
     1 E1K         1 TEMP              0 ****  ****    0 ROOT
