@<TRIPOS>MOLECULE
molecule
   49    52     1     0     0
SMALL
bcc


@<TRIPOS>ATOM
      1 C4           0.0000     0.0000     0.0000 ca         1 E1M      -0.069300
      2 C14         -0.9950     1.5830    -3.0630 ca         1 E1M       0.118100
      3 C5           1.3840     0.0000     0.0000 ca         1 E1M       0.052400
      4 C6           2.0780     0.0000     1.1950 ca         1 E1M      -0.125000
      5 C7           1.3930     0.0000     2.3950 ca         1 E1M      -0.129000
      6 C8           0.0050     0.0010     2.3990 ca         1 E1M       0.166600
      7 C9          -0.6920     0.0060     1.1970 ca         1 E1M       0.027400
      8 C1          -0.6910    -1.3950    -1.9300 c3         1 E1M      -0.111100
      9 C15         -2.3410     1.2110    -3.1260 ca         1 E1M      -0.220000
     10 C16         -3.2000     1.8270    -3.9830 ca         1 E1M      -0.124300
     11 C17         -2.7350     2.8550    -4.8230 ca         1 E1M       0.368600
     12 C18         -1.3680     3.2310    -4.7600 ca         1 E1M      -0.100300
     13 C19         -0.5080     2.5800    -3.8600 ca         1 E1M      -0.155000
     14 C2          -0.7530     0.0000    -1.3050 c3         1 E1M       0.179400
     15 C20         -0.9020     4.2570    -5.5980 ca         1 E1M      -0.048300
     16 C21         -1.8140     4.8610    -6.4600 ca         1 E1M      -0.114100
     17 C22         -3.1540     4.4290    -6.4630 ca         1 E1M       0.422200
     18 C24         -1.3810     5.9410    -7.3610 ce         1 E1M      -0.185200
     19 C25         -2.2430     6.4490    -8.2680 cf         1 E1M      -0.130200
     20 C26         -1.8120     7.5230    -9.1610 c          1 E1M       0.863800
     21 C29          0.5410     4.6910    -5.5650 cx         1 E1M      -0.076400
     22 C30          0.8340     6.1380    -5.1600 cx         1 E1M      -0.137400
     23 C31          1.1570     4.9930    -4.1970 cx         1 E1M      -0.137400
     24 N11         -0.6930     0.0020     3.6120 nv         1 E1M      -0.984200
     25 N23         -3.5640     3.4710    -5.6720 nb         1 E1M      -0.692000
     26 O13         -0.1630     0.9480    -2.1970 os         1 E1M      -0.318900
     27 O27         -2.6720     8.0310   -10.0670 o          1 E1M      -0.834800
     28 O28         -0.6790     7.9570    -9.0900 o          1 E1M      -0.834800
     29 Cl10        -2.4280     0.0140     1.1970 cl         1 E1M      -0.093400
     30 Cl12         2.2490    -0.0010    -1.5050 cl         1 E1M      -0.071400
     31 H1           3.1620    -0.0000     1.1920 ha         1 E1M       0.145000
     32 H2           1.9380    -0.0020     3.3310 ha         1 E1M       0.143000
     33 H3          -0.0850    -2.0420    -1.3080 hc         1 E1M       0.048367
     34 H4          -1.6930    -1.8010    -2.0050 hc         1 E1M       0.048367
     35 H5          -0.2530    -1.3290    -2.9180 hc         1 E1M       0.048367
     36 H6          -2.7060     0.4180    -2.4850 ha         1 E1M       0.127000
     37 H7          -4.2400     1.5260    -4.0180 ha         1 E1M       0.139000
     38 H8           0.5370     2.8610    -3.8040 ha         1 E1M       0.156000
     39 H9          -1.7870     0.2690    -1.1250 h1         1 E1M       0.074700
     40 H10         -3.8610     4.9000    -7.1340 h4         1 E1M       0.038100
     41 H11         -0.3710     6.3280    -7.2960 ha         1 E1M       0.162000
     42 H12         -3.2530     6.0630    -8.3320 ha         1 E1M       0.103000
     43 H13          1.2300     4.2750    -6.2900 hc         1 E1M       0.090700
     44 H14          1.6880     6.5950    -5.6450 hc         1 E1M       0.076450
     45 H15         -0.0320     6.7360    -4.9020 hc         1 E1M       0.076450
     46 H16          0.4880     4.8920    -3.3500 hc         1 E1M       0.076450
     47 H17          2.2080     4.7510    -4.0930 hc         1 E1M       0.076450
     48 H18         -0.9240     0.8690     4.0550 hn         1 E1M       0.432300
     49 H19         -0.9390    -0.8650     4.0480 hn         1 E1M       0.432300
@<TRIPOS>BOND
     1    25    17 ar
     2    25    11 ar
     3    10    11 ar
     4    10     9 ar
     5    17    16 ar
     6    11    12 ar
     7     9     2 ar
     8    30     3 1
     9    16    18 1
    10    16    15 ar
    11    19    18 2
    12    19    20 1
    13    12    15 ar
    14    12    13 ar
    15    28    20 1
    16     2    26 1
    17     2    13 ar
    18     4     3 ar
    19     4     5 ar
    20     3     1 ar
    21    20    27 1
    22    15    21 1
    23    26    14 1
    24     5     6 ar
    25     1    14 1
    26     1     7 ar
    27    14     8 1
    28    23    21 1
    29    23    22 1
    30    21    22 1
    31     6     7 ar
    32     6    24 1
    33     7    29 1
    34     4    31 1
    35     5    32 1
    36     8    33 1
    37     8    34 1
    38     8    35 1
    39     9    36 1
    40    10    37 1
    41    13    38 1
    42    14    39 1
    43    17    40 1
    44    18    41 1
    45    19    42 1
    46    21    43 1
    47    22    44 1
    48    22    45 1
    49    23    46 1
    50    23    47 1
    51    24    48 1
    52    24    49 1
@<TRIPOS>SUBSTRUCTURE
     1 E1M         1 TEMP              0 ****  ****    0 ROOT
