@<TRIPOS>MOLECULE
E1M
   49    54     1     0     0
SMALL
bcc


@<TRIPOS>ATOM
      1 C4           0.0000     0.0000     0.0000 ca         1 E1M      -0.024000
      2 C14         -0.9950     1.5830    -3.0630 ca         1 E1M       0.098000
      3 C5           1.3840     0.0000     0.0000 ca         1 E1M      -0.146000
      4 C6           2.0780     0.0000     1.1950 ca         1 E1M      -0.050000
      5 C7           1.3930     0.0000     2.3950 ca         1 E1M      -0.176000
      6 C8           0.0050     0.0010     2.3990 ca         1 E1M      -0.022000
      7 C9          -0.6920     0.0060     1.1970 ca         1 E1M      -0.181000
      8 C1          -0.6910    -1.3950    -1.9300 c3         1 E1M      -0.149000
      9 C15         -2.3410     1.2110    -3.1260 ca         1 E1M      -0.245000
     10 C16         -3.2000     1.8270    -3.9830 ca         1 E1M      -0.008000
     11 C17         -2.7350     2.8550    -4.8230 ca         1 E1M      -0.127000
     12 C18         -1.3680     3.2310    -4.7600 ca         1 E1M       0.033000
     13 C19         -0.5080     2.5800    -3.8600 ca         1 E1M      -0.177000
     14 C2          -0.7530     0.0000    -1.3050 c3         1 E1M       0.080000
     15 C20         -0.9020     4.2570    -5.5980 c2         1 E1M      -0.179000
     16 C21         -1.8140     4.8610    -6.4600 c3         1 E1M       0.056000
     17 C22         -3.1540     4.4290    -6.4630 c2         1 E1M      -0.126000
     18 C24         -1.3810     5.9410    -7.3610 c2         1 E1M      -0.047000
     19 C25         -2.2430     6.4490    -8.2680 c2         1 E1M      -0.181000
     20 C26         -1.8120     7.5230    -9.1610 c3         1 E1M       0.495000
     21 C29          0.5410     4.6910    -5.5650 cx         1 E1M      -0.061000
     22 C30          0.8340     6.1380    -5.1600 cx         1 E1M      -0.167500
     23 C31          1.1570     4.9930    -4.1970 cx         1 E1M      -0.167500
     24 N11         -0.6930     0.0020     3.6120 nv         1 E1M       0.042000
     25 N23         -3.5640     3.4710    -5.6720 n2         1 E1M      -0.022000
     26 O13         -0.1630     0.9480    -2.1970 os         1 E1M      -0.177000
     27 O27         -2.6720     8.0310   -10.0670 o          1 E1M      -0.581500
     28 O28         -0.6790     7.9570    -9.0900 o          1 E1M      -0.581500
     29 Cl10        -2.4280     0.0140     1.1970 cl         1 E1M       0.058000
     30 Cl12         2.2490    -0.0010    -1.5050 cl         1 E1M       0.083000
     31 H1           3.1620    -0.0000     1.1920 ha         1 E1M       0.110000
     32 H2           1.9380    -0.0020     3.3310 ha         1 E1M       0.110000
     33 H3          -0.1250    -1.3530    -2.8520 hc         1 E1M       0.056333
     34 H4          -1.6960    -1.7420    -2.1390 hc         1 E1M       0.056333
     35 H5          -0.2090    -2.0780    -1.2410 hc         1 E1M       0.056333
     36 H6          -2.7060     0.4180    -2.4850 ha         1 E1M       0.114000
     37 H7          -4.2400     1.5260    -4.0180 ha         1 E1M       0.102000
     38 H8           0.5370     2.8610    -3.8040 ha         1 E1M       0.139000
     39 H9          -1.7870     0.2690    -1.1250 h1         1 E1M       0.087000
     40 H10         -3.8610     4.9000    -7.1340 h4         1 E1M       0.140000
     41 H11         -1.4630     4.9000    -7.6490 DU         1 E1M       0.022000
     42 H12         -1.6320     6.3020    -9.1500 DU         1 E1M       0.087000
     43 H13          1.2300     4.2750    -6.2900 hc         1 E1M       0.092000
     44 H14         -0.0320     6.7360    -4.9020 hc         1 E1M       0.087750
     45 H15          1.6880     6.5950    -5.6450 hc         1 E1M       0.087750
     46 H16          0.4880     4.8920    -3.3500 hc         1 E1M       0.087750
     47 H17          2.2080     4.7510    -4.0930 hc         1 E1M       0.087750
     48 H18         -1.6930    -0.0240     3.6130 hn         1 E1M       0.065500
     49 H19         -0.1910     0.0040     4.4780 hn         1 E1M       0.065500
@<TRIPOS>BOND
     1     1     3 1   
     2     1     7 1   
     3     1    14 1   
     4     2     9 1   
     5     2    13 1   
     6     2    26 1   
     7     3     4 1   
     8     3    30 1   
     9     4     5 1   
    10     4    31 1   
    11     5     6 1   
    12     5    32 1   
    13     6     7 1   
    14     6    24 1   
    15     7    29 1   
    16     8    14 1   
    17     8    33 1   
    18     8    34 1   
    19     8    35 1   
    20     9    10 1   
    21     9    36 1   
    22    10    11 1   
    23    10    37 1   
    24    11    12 1   
    25    11    25 1   
    26    12    13 1   
    27    12    15 1   
    28    13    38 1   
    29    14    26 1   
    30    14    39 1   
    31    15    16 1   
    32    15    21 1   
    33    16    17 1   
    34    16    18 1   
    35    16    41 1   
    36    17    25 1   
    37    17    40 1   
    38    18    19 1   
    39    18    41 1   
    40    19    20 1   
    41    19    42 1   
    42    20    27 1   
    43    20    28 1   
    44    20    42 1   
    45    21    22 1   
    46    21    23 1   
    47    21    43 1   
    48    22    23 1   
    49    22    44 1   
    50    22    45 1   
    51    23    46 1   
    52    23    47 1   
    53    24    48 1   
    54    24    49 1   
@<TRIPOS>SUBSTRUCTURE
     1 E1M         1 TEMP              0 ****  ****    0 ROOT
