@<TRIPOS>MOLECULE
molecule
   44    47     1     0     0
SMALL
bcc


@<TRIPOS>ATOM
      1 CAA          0.0000     0.0000     0.0000 ca         1 E1N      -0.056000
      2 CAB          1.4020     0.0000     0.0000 ca         1 E1N      -0.110000
      3 CAC          2.1050     0.0000     1.2280 ca         1 E1N       0.059000
      4 CAD          1.3780    -0.0000     2.4310 ca         1 E1N      -0.173000
      5 CAE          0.0150     0.0010     2.3970 ca         1 E1N       0.102400
      6 CAF         -0.6730     0.0060     1.1840 ca         1 E1N      -0.114000
      7 CAG          4.1490     0.0050     0.1110 cc         1 E1N       0.114800
      8 CAH          3.5320     0.0020    -1.1260 cd         1 E1N      -0.136200
      9 CAI          2.1420    -0.0020    -1.2030 cd         1 E1N       0.290700
     10 CAJ          4.3010    -0.0020    -2.4210 c3         1 E1N      -0.014500
     11 CAK          5.7490     0.4330    -2.1880 c3         1 E1N      -0.079400
     12 CAL          6.3130    -0.4240    -1.0500 c3         1 E1N      -0.024500
     13 CAM          5.6520     0.0170     0.2550 c3         1 E1N      -0.058200
     14 CAR          4.3080    -1.4200    -3.0030 c3         1 E1N      -0.032200
     15 CAS          6.0320    -1.8750    -1.2980 c2         1 E1N      -0.199200
     16 CAT          5.1600    -2.3140    -2.1480 c2         1 E1N      -0.099400
     17 CAU          4.9860    -3.8040    -2.2830 c3         1 E1N      -0.052200
     18 CAV          3.8280    -4.2650    -1.3940 c3         1 E1N      -0.086100
     19 NAO          1.4990    -0.0050    -2.4310 nv         1 E1N      -0.643100
     20 NAQ          3.4390     0.0020     1.2260 na         1 E1N      -0.195200
     21 ClA         -0.8760     0.0010     3.8860 cl         1 E1N      -0.030400
     22 H1          -0.5450     0.0050    -0.9360 ha         1 E1N       0.172000
     23 H2           1.8980    -0.0050     3.3810 ha         1 E1N       0.170000
     24 H3          -1.7560     0.0070     1.1840 ha         1 E1N       0.177000
     25 H4           3.8290     0.6740    -3.1240 hc         1 E1N       0.080700
     26 H5           6.3300     0.2760    -3.0890 hc         1 E1N       0.067200
     27 H6           5.7790     1.4790    -1.9090 hc         1 E1N       0.067200
     28 H7           7.3840    -0.2720    -0.9810 hc         1 E1N       0.088700
     29 H8           5.9790     1.0200     0.5000 hc         1 E1N       0.084700
     30 H9           5.9400    -0.6630     1.0480 hc         1 E1N       0.084700
     31 H10          4.2610    -1.0190     2.8570 h1         1 E1N       0.090367
     32 H11          5.1210     0.4530     2.3870 h1         1 E1N       0.090367
     33 H12          3.5740     0.5660     3.2370 h1         1 E1N       0.090367
     34 H13          4.7110    -1.3940    -4.0080 hc         1 E1N       0.067200
     35 H14          3.2950    -1.8040    -3.0250 hc         1 E1N       0.067200
     36 H15          6.5960    -2.6050    -0.7300 ha         1 E1N       0.138000
     37 H16          4.7690    -4.0510    -3.3160 hc         1 E1N       0.060700
     38 H17          5.8970    -4.3040    -1.9770 hc         1 E1N       0.060700
     39 H18          3.7940    -5.3480    -1.3770 hc         1 E1N       0.035367
     40 H19          3.9760    -3.8930    -0.3870 hc         1 E1N       0.035367
     41 H20          2.8950    -3.8810    -1.7880 hc         1 E1N       0.035367
     42 H21          1.3860     0.8490    -2.9390 hn         1 E1N       0.308700
     43 H22          1.1060    -0.8540    -2.7870 hn         1 E1N       0.308700
     44 CAN          4.1450     0.0000     2.5100 c3         1 E1N       0.154100
@<TRIPOS>BOND
     1    21     5 1
     2    44    20 1
     3     4     5 ar
     4     4     3 ar
     5    18    17 1
     6     5     6 ar
     7    17    16 1
     8    20     3 1
     9    20     7 1
    10     3     2 ar
    11    15    16 2
    12    15    12 1
    13     6     1 ar
    14    16    14 1
    15    13     7 1
    16    13    12 1
    17     7     8 2
    18     2     1 ar
    19     2     9 1
    20    12    11 1
    21    14    10 1
    22     8     9 1
    23     8    10 1
    24     9    19 2
    25    10    11 1
    26     1    22 1
    27     4    23 1
    28     6    24 1
    29    10    25 1
    30    11    26 1
    31    11    27 1
    32    12    28 1
    33    13    29 1
    34    13    30 1
    35    44    31 1
    36    44    32 1
    37    44    33 1
    38    14    34 1
    39    14    35 1
    40    15    36 1
    41    17    37 1
    42    17    38 1
    43    18    39 1
    44    18    40 1
    45    18    41 1
    46    19    42 1
    47    19    43 1
@<TRIPOS>SUBSTRUCTURE
     1 E1N         1 TEMP              0 ****  ****    0 ROOT
