@<TRIPOS>MOLECULE
molecule
   28    28     1     0     0
SMALL
bcc


@<TRIPOS>ATOM
      1 C3           0.0000     0.0000     0.0000 c3         1 E1P       0.079500
      2 C2           1.5310     0.0000     0.0000 c3         1 E1P      -0.097900
      3 C1           2.0370     0.0000     1.4440 c3         1 E1P      -0.084400
      4 C5           1.5530     1.2650     2.1560 c3         1 E1P      -0.097900
      5 C4           0.0260     1.2810     2.1770 c3         1 E1P       0.079500
      6 N1          -0.4730     1.1330     0.8050 n          1 E1P      -0.459800
      7 C6          -1.3460     2.0230     0.2920 c          1 E1P       0.619100
      8 O2          -1.6700     2.9970     0.9390 o          1 E1P      -0.570100
      9 C7          -1.9130     1.8100    -1.0730 c          1 E1P       0.584100
     10 O3          -1.6840     0.7820    -1.6720 o          1 E1P      -0.548000
     11 O4          -2.6800     2.7600    -1.6390 os         1 E1P      -0.401900
     12 C8          -3.2320     2.5540    -2.9660 c3         1 E1P       0.150400
     13 C9          -4.0570     3.7760    -3.3710 c3         1 E1P      -0.095100
     14 H3C1        -0.3620     0.1010    -1.0160 h1         1 E1P       0.075200
     15 H3C2        -0.3620    -0.9260     0.4300 h1         1 E1P       0.075200
     16 H2C1         1.8910     0.8860    -0.5080 hc         1 E1P       0.051200
     17 H2C2         1.8910    -0.8860    -0.5080 hc         1 E1P       0.051200
     18 H1C1         3.1200    -0.0220     1.4460 hc         1 E1P       0.043700
     19 H1C2         1.6530    -0.8720     1.9600 hc         1 E1P       0.043700
     20 H5C1         1.9280     1.2720     3.1720 hc         1 E1P       0.051200
     21 H5C2         1.9160     2.1370     1.6250 hc         1 E1P       0.051200
     22 H4C1        -0.3350     0.4600     2.7840 h1         1 E1P       0.075200
     23 H4C2        -0.3190     2.2220     2.5880 h1         1 E1P       0.075200
     24 H8C1        -3.8660     1.6760    -2.9610 h1         1 E1P       0.047700
     25 H8C2        -2.4250     2.4120    -3.6750 h1         1 E1P       0.047700
     26 H9C1        -3.4220     4.6540    -3.3770 hc         1 E1P       0.051033
     27 H9C2        -4.4690     3.6210    -4.3610 hc         1 E1P       0.051033
     28 H9C3        -4.8640     3.9180    -2.6630 hc         1 E1P       0.051033
@<TRIPOS>BOND
     1     1     2 1
     2     1     6 1
     3     1    14 1
     4     1    15 1
     5     2     3 1
     6     2    16 1
     7     2    17 1
     8     3     4 1
     9     3    18 1
    10     3    19 1
    11     4     5 1
    12     4    20 1
    13     4    21 1
    14     5     6 1
    15     5    22 1
    16     5    23 1
    17     6     7 1
    18     7     8 2
    19     7     9 1
    20     9    10 2
    21     9    11 1
    22    11    12 1
    23    12    13 1
    24    12    24 1
    25    12    25 1
    26    13    26 1
    27    13    27 1
    28    13    28 1
@<TRIPOS>SUBSTRUCTURE
     1 E1P         1 TEMP              0 ****  ****    0 ROOT
