@<TRIPOS>MOLECULE
molecule
   48    49     1     0     0
SMALL
bcc


@<TRIPOS>ATOM
      1 C1           0.0000     0.0000     0.0000 c3         1 E1S      -0.148400
      2 N1           2.1810     0.0000    -1.1670 ns         1 E1S      -0.556900
      3 C2           1.5070     0.0000     0.0000 c          1 E1S       0.667100
      4 O2           2.1130     0.0000     1.0500 o          1 E1S      -0.618100
      5 C3           4.1560    -0.6080    -2.4750 c3         1 E1S      -0.083400
      6 C4           3.7510    -2.0820    -2.5430 c3         1 E1S      -0.183400
      7 C5           4.2530    -2.6820    -3.8300 c          1 E1S       0.887600
      8 O6           4.0140    -3.9740    -4.1070 o          1 E1S      -0.824800
      9 O7           4.8710    -2.0000    -4.6140 o          1 E1S      -0.824800
     10 C13          4.1480     1.4170    -1.0430 c          1 E1S       0.464100
     11 C14         -0.5100    -0.0010     1.4430 c3         1 E1S      -0.020100
     12 C15         -2.0170    -0.0010     1.4430 ca         1 E1S      -0.098300
     13 C16         -2.7050    -1.2010     1.4430 ca         1 E1S      -0.126000
     14 C17         -4.0850    -1.2080     1.4430 ca         1 E1S      -0.117500
     15 C18         -2.7050     1.1990     1.4490 ca         1 E1S      -0.126000
     16 C19         -6.2650    -0.0020     1.4440 cc         1 E1S       0.009900
     17 C20         -7.0430     1.0980     1.4390 cd         1 E1S      -0.140000
     18 C21         -8.3990     0.8440     1.4350 cd         1 E1S      -0.164000
     19 S23         -7.2800    -1.4380     1.4430 ss         1 E1S      -0.143800
     20 C27         -8.7340    -0.4490     1.4360 cc         1 E1S      -0.021400
     21 C30         -4.7860    -0.0020     1.4440 ca         1 E1S       0.017000
     22 C31         -4.0860     1.2050     1.4500 ca         1 E1S      -0.117500
     23 C35          3.6460     0.0010    -1.1680 c3         1 E1S       0.036700
     24 H1          -0.3610    -0.8840    -0.5110 hc         1 E1S       0.075700
     25 H1A         -0.3610     0.8850    -0.5100 hc         1 E1S       0.075700
     26 HN1          1.6810     0.0300    -2.0340 hn         1 E1S       0.347500
     27 H3           5.2350    -0.5280    -2.5140 hc         1 E1S       0.057200
     28 H3A          3.7240    -0.0760    -3.3140 hc         1 E1S       0.057200
     29 HN3          5.6570     2.4460    -0.4280 hn         1 E1S       0.472800
     30 HN3A         5.7890     1.8640    -1.9500 hn         1 E1S       0.472800
     31 H4           2.6710    -2.1620    -2.5040 hc         1 E1S       0.046700
     32 H4A          4.1830    -2.6140    -1.7040 hc         1 E1S       0.046700
     33 H14         -0.1480    -0.8850     1.9530 hc         1 E1S       0.063700
     34 H14A        -0.1490     0.8840     1.9530 hc         1 E1S       0.063700
     35 H16         -2.1600    -2.1370     1.4500 ha         1 E1S       0.133000
     36 H17         -4.6220    -2.1470     1.5130 ha         1 E1S       0.138500
     37 H18         -2.1600     2.1350     1.4640 ha         1 E1S       0.133000
     38 H20         -6.6360     2.1020     1.4380 ha         1 E1S       0.147000
     39 H21         -9.1390     1.6360     1.4310 ha         1 E1S       0.148000
     40 H24        -10.6660    -0.6240     2.3120 hc         1 E1S       0.048700
     41 H24A       -10.6580    -0.6340     0.5430 hc         1 E1S       0.048700
     42 H24B       -10.1220    -2.0630     1.4390 hc         1 E1S       0.048700
     43 H31         -4.3940     2.2430     1.4590 ha         1 E1S       0.138500
     44 H35          4.0070    -0.5850    -0.3320 h1         1 E1S       0.117700
     45 C24        -10.1440    -0.9800     1.4320 c3         1 E1S      -0.016800
     46 N3           5.4730     1.6620    -1.0220 nz         1 E1S      -0.681400
     47 O5           3.3600     2.3350    -0.9630 o          1 E1S      -0.426100
     48 H33          5.9550     0.8580    -0.6730 hn         1 E1S       0.472800
@<TRIPOS>BOND
     1     3     1 1
     2    11     1 1
     3     1    24 1
     4     1    25 1
     5    23     2 1
     6     2     3 1
     7     2    26 1
     8     3     4 2
     9     5     6 1
    10     5    23 1
    11     5    27 1
    12     5    28 1
    13    10    46 1
    14    46    29 1
    15    46    30 1
    16     7     6 1
    17     6    31 1
    18     6    32 1
    19     9     7 1
    20     7     8 1
    21    47    10 2
    22    10    23 1
    23    11    12 1
    24    11    33 1
    25    11    34 1
    26    15    12 ar
    27    12    13 ar
    28    13    14 ar
    29    13    35 1
    30    21    14 ar
    31    14    36 1
    32    15    22 ar
    33    15    37 1
    34    17    16 2
    35    21    16 1
    36    16    19 1
    37    17    18 1
    38    17    38 1
    39    18    20 2
    40    18    39 1
    41    20    19 1
    42    20    45 1
    43    45    40 1
    44    45    41 1
    45    45    42 1
    46    22    21 ar
    47    22    43 1
    48    23    44 1
    49    48    46 1
@<TRIPOS>SUBSTRUCTURE
     1 E1S         1 TEMP              0 ****  ****    0 ROOT
