@<TRIPOS>MOLECULE
molecule
   18    19     1     0     0
SMALL
bcc


@<TRIPOS>ATOM
      1 C1           0.0000     0.0000     0.0000 ca         1 E1T      -0.223300
      2 C2           1.4190     0.0000     0.0000 ca         1 E1T       0.669300
      3 C3          -0.6910     0.0000     1.2250 ca         1 E1T      -0.124000
      4 C4           1.4410     0.0010     2.3130 ca         1 E1T       0.438800
      5 C5          -0.6870    -0.0070    -1.2280 ca         1 E1T      -0.075000
      6 C6           0.0400     0.0010     2.3790 ca         1 E1T      -0.212300
      7 C7           0.0510    -0.0130    -2.3780 ca         1 E1T      -0.292300
      8 C8           1.4430    -0.0120    -2.3090 ca         1 E1T       0.420200
      9 C9           2.2240     0.0010     3.5730 c          1 E1T       0.776100
     10 N1           2.0790     0.0000     1.1590 nb         1 E1T      -0.623000
     11 N2           2.0790    -0.0010    -1.1640 nb         1 E1T      -0.655000
     12 O1           1.6510     0.0010     4.6430 o          1 E1T      -0.808300
     13 O2           3.5690     0.0010     3.5290 o          1 E1T      -0.808300
     14 H1          -1.7740     0.0000     1.2520 ha         1 E1T       0.117000
     15 H2          -1.7700    -0.0080    -1.2610 ha         1 E1T       0.121000
     16 H3          -0.4570     0.1080     3.3350 ha         1 E1T       0.158000
     17 H4          -0.4450    -0.0220    -3.3410 ha         1 E1T       0.117000
     18 H5           2.0150    -0.0170    -3.2290 h4         1 E1T       0.006100
@<TRIPOS>BOND
     1     7     8 ar
     2     7     5 ar
     3     8    11 ar
     4     5     1 ar
     5    11     2 ar
     6     1     2 ar
     7     1     3 ar
     8     2    10 ar
     9     3     6 ar
    10    10     4 ar
    11     6     4 ar
    12     4     9 1
    13     9    12 1
    14     9    13 1
    15     3    14 1
    16     5    15 1
    17     6    16 1
    18     7    17 1
    19     8    18 1
@<TRIPOS>SUBSTRUCTURE
     1 E1T         1 TEMP              0 ****  ****    0 ROOT
