@<TRIPOS>MOLECULE
E1Z
   44    47     1     0     0
SMALL
bcc


@<TRIPOS>ATOM
      1 O1           0.0000     0.0000     0.0000 oh         1 E1Z      -0.238000
      2 O2           1.4810     0.0000     2.2220 o          1 E1Z      -0.401000
      3 N1           1.4160     0.0000     0.0000 n7         1 E1Z       0.089000
      4 N2          13.5670     2.8460     2.5500 nh         1 E1Z       0.020000
      5 C1           9.8010     1.5490     3.7200 ca         1 E1Z      -0.243000
      6 C2          10.3700     2.6820     4.3160 ca         1 E1Z       0.004000
      7 C3          11.6080     3.1050     3.9290 ca         1 E1Z      -0.213000
      8 C4          12.3070     2.4120     2.9410 ca         1 E1Z       0.026000
      9 C5          11.7440     1.2850     2.3460 ca         1 E1Z      -0.213000
     10 C6          10.5050     0.8550     2.7270 ca         1 E1Z       0.004000
     11 C7           8.4710     1.0870     4.1380 c2         1 E1Z       0.299000
     12 C8           7.8610    -0.1310     3.4950 DU         1 E1Z      -0.153000
     13 C9           6.3600     0.0010     3.4920 c2         1 E1Z      -0.452000
     14 C10          5.6930     0.0010     2.3360 c3         1 E1Z       0.056000
     15 C11          4.2290     0.0010     2.3370 c2         1 E1Z       0.137000
     16 C12          3.5530     0.0010     1.1670 c2         1 E1Z      -0.295000
     17 C13          2.0900     0.0000     1.1670 c3         1 E1Z       0.300000
     18 C14          8.2610    -1.3790     4.2850 c3         1 E1Z      -0.080000
     19 C15          6.4460     0.0010     1.0310 c3         1 E1Z      -0.093000
     20 C17         14.1140     4.0910     3.0950 c3         1 E1Z      -0.068000
     21 C16         14.3470     2.0590     1.5920 c3         1 E1Z      -0.068000
     22 H1           1.9160    -0.0330    -0.8660 hn         1 E1Z       0.075000
     23 H171        15.0780     4.2910     2.6420 h1         1 E1Z       0.047167
     24 H172        13.4370     4.9080     2.8790 h1         1 E1Z       0.047167
     25 H173        14.2330     3.9940     4.1670 h1         1 E1Z       0.047167
     26 H161        15.3200     2.5170     1.4570 h1         1 E1Z       0.047167
     27 H162        13.8270     2.0280     0.6420 h1         1 E1Z       0.047167
     28 H163        14.4720     1.0520     1.9700 h1         1 E1Z       0.047167
     29 H2           9.8290     3.2210     5.0840 ha         1 E1Z       0.112000
     30 H6          10.0690    -0.0210     2.2640 ha         1 E1Z       0.112000
     31 H3          12.0490     3.9810     4.3890 ha         1 E1Z       0.118500
     32 H5          12.2890     0.7500     1.5780 ha         1 E1Z       0.118500
     33 H8           8.2180    -0.2190     2.4760 ha         1 E1Z       0.066000
     34 H9           7.0080     0.8540     3.3300 DU         1 E1Z       0.239000
     35 H141         7.3880    -1.7910     4.7770 hc         1 E1Z       0.049333
     36 H142         9.0030    -1.1130     5.0290 hc         1 E1Z       0.049333
     37 H143         8.6770    -2.1170     3.6090 hc         1 E1Z       0.049333
     38 H11          4.8410    -0.8740     2.1510 DU         1 E1Z       0.101000
     39 H151         7.0190     0.9160     0.9450 hc         1 E1Z       0.066333
     40 H152         5.7430    -0.0640     0.2090 hc         1 E1Z       0.066333
     41 H153         7.1160    -0.8500     1.0010 hc         1 E1Z       0.066333
     42 H12          2.9410     0.8750     1.3520 DU         1 E1Z       0.104000
     43 HO1         -0.3140    -0.0380    -0.8880 ho         1 E1Z       0.193000
     44 O3           7.8650     1.6860     5.0000 o          1 E1Z      -0.288000
@<TRIPOS>BOND
     1     1     3 1   
     2     1    43 1   
     3     2    17 1   
     4     3    17 1   
     5     3    22 1   
     6     4     8 1   
     7     4    20 1   
     8     4    21 1   
     9     5     6 1   
    10     5    10 1   
    11     5    11 1   
    12     6     7 1   
    13     6    29 1   
    14     7     8 1   
    15     7    31 1   
    16     8     9 1   
    17     9    10 1   
    18     9    32 1   
    19    10    30 1   
    20    11    12 1   
    21    11    44 1   
    22    12    13 1   
    23    12    18 1   
    24    12    33 1   
    25    12    34 1   
    26    13    14 1   
    27    13    34 1   
    28    14    15 1   
    29    14    19 1   
    30    14    38 1   
    31    15    16 1   
    32    15    38 1   
    33    16    17 1   
    34    16    42 1   
    35    17    42 1   
    36    18    35 1   
    37    18    36 1   
    38    18    37 1   
    39    19    39 1   
    40    19    40 1   
    41    19    41 1   
    42    20    23 1   
    43    20    24 1   
    44    20    25 1   
    45    21    26 1   
    46    21    27 1   
    47    21    28 1   
@<TRIPOS>SUBSTRUCTURE
     1 E1Z         1 TEMP              0 ****  ****    0 ROOT
