@<TRIPOS>MOLECULE
molecule
   44    44     1     0     0
SMALL
bcc


@<TRIPOS>ATOM
      1 O1           0.0000     0.0000     0.0000 oh         1 E1Z      -0.362100
      2 O2           1.4810     0.0000     2.2220 o          1 E1Z      -0.585100
      3 N1           1.4160     0.0000     0.0000 ns         1 E1Z      -0.470400
      4 N2          13.5670     2.8460     2.5500 nh         1 E1Z      -0.728000
      5 C1           9.8010     1.5490     3.7200 ca         1 E1Z      -0.245600
      6 C2          10.3700     2.6820     4.3160 ca         1 E1Z      -0.030500
      7 C3          11.6080     3.1050     3.9290 ca         1 E1Z      -0.225500
      8 C4          12.3070     2.4120     2.9410 ca         1 E1Z       0.233600
      9 C5          11.7440     1.2850     2.3460 ca         1 E1Z      -0.225500
     10 C6          10.5050     0.8550     2.7270 ca         1 E1Z      -0.030500
     11 C7           8.4710     1.0870     4.1380 c          1 E1Z       0.593700
     12 C8           7.8610    -0.1310     3.4950 c3         1 E1Z      -0.146500
     13 C9           6.3600     0.0010     3.4920 c2         1 E1Z      -0.107200
     14 C10          5.6930     0.0010     2.3360 ce         1 E1Z      -0.129200
     15 C11          4.2290     0.0010     2.3370 ce         1 E1Z      -0.018000
     16 C12          3.5530     0.0010     1.1670 cf         1 E1Z      -0.264200
     17 C13          2.0900     0.0000     1.1670 c          1 E1Z       0.679300
     18 C14          8.2610    -1.3790     4.2850 c3         1 E1Z      -0.075100
     19 C15          6.4460     0.0010     1.0310 c3         1 E1Z      -0.056900
     20 C17         14.1140     4.0910     3.0950 c3         1 E1Z       0.227600
     21 C16         14.3470     2.0590     1.5920 c3         1 E1Z       0.227600
     22 H1           1.9170     0.0300    -0.8660 hn         1 E1Z       0.318500
     23 H171        14.2500     3.9880     4.1650 h1         1 E1Z       0.038533
     24 H172        13.4280     4.9050     2.8950 h1         1 E1Z       0.038533
     25 H173        15.0690     4.3000     2.6280 h1         1 E1Z       0.038533
     26 H161        13.8300     2.0320     0.6410 h1         1 E1Z       0.038533
     27 H162        15.3210     2.5150     1.4600 h1         1 E1Z       0.038533
     28 H163        14.4680     1.0500     1.9670 h1         1 E1Z       0.038533
     29 H2           9.8290     3.2210     5.0840 ha         1 E1Z       0.141000
     30 H6          10.0690    -0.0210     2.2640 ha         1 E1Z       0.141000
     31 H3          12.0490     3.9810     4.3890 ha         1 E1Z       0.135000
     32 H5          12.2890     0.7500     1.5780 ha         1 E1Z       0.135000
     33 H8           8.2180    -0.2190     2.4760 hc         1 E1Z       0.071700
     34 H9           5.8160     0.0020     4.4290 ha         1 E1Z       0.149000
     35 H141         8.7300    -2.0930     3.6190 hc         1 E1Z       0.044367
     36 H142         8.9590    -1.1030     5.0670 hc         1 E1Z       0.044367
     37 H143         7.3790    -1.8240     4.7290 hc         1 E1Z       0.044367
     38 H11          3.6880     0.0010     3.2750 ha         1 E1Z       0.161000
     39 H151         5.7610    -0.2150     0.2200 hc         1 E1Z       0.044033
     40 H152         7.2200    -0.7560     1.0610 hc         1 E1Z       0.044033
     41 H153         6.8960     0.9730     0.8740 hc         1 E1Z       0.044033
     42 H12          4.0940     0.0000     0.2290 ha         1 E1Z       0.129000
     43 HO1         -0.3140    -0.0060    -0.8890 ho         1 E1Z       0.396000
     44 O3           7.8650     1.6860     5.0000 o          1 E1Z      -0.534100
@<TRIPOS>BOND
     1     1     3 1
     2     1    43 1
     3     2    17 2
     4    44    11 2
     5     3    17 1
     6     4     8 1
     7     4    20 1
     8     4    21 1
     9     5     6 ar
    10     5    10 ar
    11     5    11 1
    12     6     7 ar
    13     7     8 ar
    14     8     9 ar
    15     9    10 ar
    16    11    12 1
    17    12    13 1
    18    12    18 1
    19    13    14 2
    20    14    15 1
    21    14    19 1
    22    15    16 2
    23    16    17 1
    24     3    22 1
    25    20    23 1
    26    20    24 1
    27    20    25 1
    28    21    26 1
    29    21    27 1
    30    21    28 1
    31     6    29 1
    32    10    30 1
    33     7    31 1
    34     9    32 1
    35    12    33 1
    36    13    34 1
    37    18    35 1
    38    18    36 1
    39    18    37 1
    40    15    38 1
    41    19    39 1
    42    19    40 1
    43    19    41 1
    44    16    42 1
@<TRIPOS>SUBSTRUCTURE
     1 E1Z         1 TEMP              0 ****  ****    0 ROOT
