@<TRIPOS>MOLECULE
E20
   57    60     1     0     0
SMALL
bcc


@<TRIPOS>ATOM
      1 C1           0.0000     0.0000     0.0000 ca         1 E20       0.079100
      2 C2           1.3940     0.0000     0.0000 ca         1 E20       0.139100
      3 C3           2.0890     0.0000     1.2020 ca         1 E20      -0.198000
      4 C4           1.4060    -0.0070     2.4010 ca         1 E20      -0.045300
      5 C5           0.0110    -0.0130     2.4120 ca         1 E20      -0.206600
      6 C6          -0.6890    -0.0120     1.1930 ca         1 E20      -0.109000
      7 C7          -0.4960    -0.0190     3.7910 c          1 E20       0.651700
      8 C8           0.6860    -0.0170     4.7280 c3         1 E20      -0.157700
      9 C9           1.9230    -0.0080     3.8210 c3         1 E20       0.032900
     10 C10          0.6660     1.2340     5.6070 c3         1 E20      -0.006400
     11 C11          1.8490     1.1960     6.5760 c3         1 E20      -0.062700
     12 C12          1.9140     2.5110     7.3580 c3         1 E20      -0.024900
     13 C13          3.0260     2.4200     8.4040 c3         1 E20       0.130300
     14 N14          2.7320     1.3370     9.3480 n3         1 E20      -0.508600
     15 C15          2.7900     0.0790     8.5990 c3         1 E20       0.130300
     16 C16          1.6650     0.0400     7.5640 c3         1 E20      -0.024900
     17 C17          3.8410     1.3050    10.3120 c3         1 E20       0.197100
     18 C18          3.6010     0.2080    11.3160 ca         1 E20      -0.092300
     19 C19          4.0800    -1.0650    11.0750 ca         1 E20      -0.091500
     20 C20          3.8610    -2.0710    11.9970 ca         1 E20      -0.100500
     21 C21          3.1630    -1.8040    13.1600 ca         1 E20      -0.100000
     22 C22          2.6860    -0.5300    13.4020 ca         1 E20      -0.100500
     23 C23          2.9090     0.4770    12.4820 ca         1 E20      -0.091500
     24 O24         -1.6650    -0.0250     4.1190 o          1 E20      -0.551100
     25 O25         -0.6800     0.0010    -1.1790 os         1 E20      -0.268900
     26 C26         -2.0720    -0.0110    -0.8520 c3         1 E20       0.211700
     27 O27          2.0720     0.0050    -1.1760 os         1 E20      -0.262900
     28 C28          3.4640     0.0110    -0.8500 c3         1 E20       0.212700
     29 H3           3.1720     0.0000     1.1980 ha         1 E20       0.137000
     30 H6          -1.7720    -0.0120     1.1920 ha         1 E20       0.144000
     31 H8           0.6790    -0.9120     5.3390 hc         1 E20       0.060700
     32 H91          2.5190    -0.8950     3.9970 hc         1 E20       0.030200
     33 H92          2.5100     0.8840     4.0020 hc         1 E20       0.030200
     34 H101        -0.2600     1.2660     6.1690 hc         1 E20       0.028200
     35 H102         0.7390     2.1160     4.9820 hc         1 E20       0.028200
     36 H11          2.7710     1.0570     6.0250 hc         1 E20       0.028700
     37 H121         0.9660     2.6840     7.8530 hc         1 E20       0.024450
     38 H122         2.1260     3.3260     6.6760 hc         1 E20       0.024450
     39 H131         3.9680     2.2190     7.9090 h1         1 E20       0.015450
     40 H132         3.0880     3.3580     8.9430 h1         1 E20       0.015450
     41 H151         2.6750    -0.7520     9.2840 h1         1 E20       0.015450
     42 H152         3.7450     0.0050     8.0930 h1         1 E20       0.015450
     43 H161         1.6990    -0.9010     7.0280 hc         1 E20       0.024450
     44 H162         0.7100     0.1430     8.0650 hc         1 E20       0.024450
     45 H171         4.7700     1.1180     9.7880 h1         1 E20       0.014700
     46 H172         3.9010     2.2580    10.8250 h1         1 E20       0.014700
     47 H19          4.6270    -1.2750    10.1640 ha         1 E20       0.107000
     48 H20          4.2360    -3.0700    11.8080 ha         1 E20       0.102500
     49 H21          2.9900    -2.5930    13.8820 ha         1 E20       0.102000
     50 H22          2.1410    -0.3190    14.3140 ha         1 E20       0.102500
     51 H23          2.5350     1.4760    12.6710 ha         1 E20       0.107000
     52 H261        -2.3140     0.8690    -0.2700 h1         1 E20       0.004367
     53 H262        -2.6560    -0.0130    -1.7650 h1         1 E20       0.004367
     54 H263        -2.2990    -0.9000    -0.2760 h1         1 E20       0.004367
     55 H281         3.7030    -0.8740    -0.2730 h1         1 E20       0.003367
     56 H282         4.0480     0.0170    -1.7620 h1         1 E20       0.003367
     57 H283         3.6940     0.8950    -0.2670 h1         1 E20       0.003367
@<TRIPOS>BOND
     1     1     2 ar  
     2     1     6 ar  
     3     1    25 1   
     4     2     3 ar  
     5     2    27 1   
     6     3     4 ar  
     7     3    29 1   
     8     4     5 ar  
     9     4     9 1   
    10     5     6 ar  
    11     5     7 1   
    12     6    30 1   
    13     7     8 1   
    14     7    24 2   
    15     8     9 1   
    16     8    10 1   
    17     8    31 1   
    18     9    32 1   
    19     9    33 1   
    20    10    11 1   
    21    10    34 1   
    22    10    35 1   
    23    11    12 1   
    24    11    16 1   
    25    11    36 1   
    26    12    13 1   
    27    12    37 1   
    28    12    38 1   
    29    13    14 1   
    30    13    39 1   
    31    13    40 1   
    32    14    15 1   
    33    14    17 1   
    34    15    16 1   
    35    15    41 1   
    36    15    42 1   
    37    16    43 1   
    38    16    44 1   
    39    17    18 1   
    40    17    45 1   
    41    17    46 1   
    42    18    19 ar  
    43    18    23 ar  
    44    19    20 ar  
    45    19    47 1   
    46    20    21 ar  
    47    20    48 1   
    48    21    22 ar  
    49    21    49 1   
    50    22    23 ar  
    51    22    50 1   
    52    23    51 1   
    53    25    26 1   
    54    26    52 1   
    55    26    53 1   
    56    26    54 1   
    57    27    28 1   
    58    28    55 1   
    59    28    56 1   
    60    28    57 1   
@<TRIPOS>SUBSTRUCTURE
     1 E20         1 TEMP              0 ****  ****    0 ROOT
