@<TRIPOS>MOLECULE
E22
   65    68     1     0     0
SMALL
bcc


@<TRIPOS>ATOM
      1 C5           0.0000     0.0000     0.0000 c2         1 E22       0.343000
      2 O2           1.2170     0.0000     0.0000 o          1 E22      -0.361000
      3 C9          -0.7320     0.0000     1.2690 c2         1 E22      -0.369000
      4 C16         -0.0570     0.0010     2.4360 c2         1 E22      -0.082000
      5 C21         -0.7940     0.0020     3.7100 ca         1 E22       0.127000
      6 C14         -2.1920    -0.0040     3.7150 ca         1 E22      -0.102500
      7 C8          -2.8740    -0.0040     4.9140 ca         1 E22      -0.095000
      8 C4          -2.1770     0.0030     6.1100 ca         1 E22      -0.071000
      9 C10         -0.7940     0.0090     6.1140 ca         1 E22      -0.095000
     10 C26         -0.0970     0.0030     4.9230 ca         1 E22      -0.102500
     11 N1          -0.6740     0.0040    -1.1670 ns         1 E22      -0.123000
     12 C1           0.0580     0.0030    -2.4350 c3         1 E22      -0.099000
     13 C3          -0.8040     0.6090    -3.5130 c2         1 E22       0.207000
     14 O1          -1.9200     1.0030    -3.2480 o          1 E22      -0.365000
     15 C2           0.4160    -1.4340    -2.8170 c3         1 E22      -0.088000
     16 C7           1.3770    -1.9990    -1.8020 ca         1 E22      -0.071000
     17 C12          0.8950    -2.6600    -0.6880 ca         1 E22      -0.096000
     18 C18          2.7390    -1.8610    -1.9890 ca         1 E22      -0.096000
     19 C22          1.7760    -3.1780     0.2420 ca         1 E22      -0.089000
     20 C23          3.6200    -2.3790    -1.0590 ca         1 E22      -0.089000
     21 C20          3.1380    -3.0350     0.0590 ca         1 E22      -0.094000
     22 C6           0.1020     5.5170    -5.3130 c3         1 E22      -0.097000
     23 C11         -1.1720     1.3030    -5.8200 c3         1 E22      -0.088000
     24 C13         -0.6290     4.2360    -5.7330 c3         1 E22      -0.139000
     25 C15          1.3870     3.8230    -7.1230 c2         1 E22       0.180000
     26 C17         -0.2860     2.0220    -6.8380 c3         1 E22      -0.120000
     27 C19         -2.8040     0.7880    -7.5750 c1         1 E22      -0.204000
     28 C24         -1.9630     0.1970    -6.5230 c3         1 E22       0.234000
     29 C25          0.4160     3.2010    -6.1600 c3         1 E22      -0.106000
     30 C27          0.7540     6.1370    -6.5490 c3         1 E22      -0.509000
     31 N2          -3.4380     1.2530    -8.3970 n1         1 E22      -0.034000
     32 N3          -0.3340     0.7140    -4.7730 ns         1 E22       0.007000
     33 N4           1.5390     5.1400    -7.2660 ny         1 E22       0.210000
     34 O3          -2.7910    -0.4740    -5.5720 oh         1 E22      -0.283000
     35 H1          -1.6620    -0.5470     1.3570 ha         1 E22       0.124000
     36 H3          -0.5990     0.0010     3.3740 ha         1 E22       0.057000
     37 H5          -2.7370     0.1090     2.7860 ha         1 E22       0.131500
     38 H6          -3.9570    -0.0090     4.9210 ha         1 E22       0.111000
     39 H7          -2.7160     0.0020     7.0500 ha         1 E22       0.107000
     40 H8          -0.2550     0.0140     7.0540 ha         1 E22       0.111000
     41 H9           0.9800     0.1200     4.9300 ha         1 E22       0.131500
     42 H10         -0.7140     0.8390    -1.7180 hn         1 E22       0.158000
     43 H11          0.9660     0.5850    -2.3290 h1         1 E22       0.086000
     44 H12          0.5360    -1.5040    -3.8910 hc         1 E22       0.077500
     45 H13         -0.3760    -2.1010    -2.4980 hc         1 E22       0.077500
     46 H14         -0.1730    -2.7250    -0.5170 ha         1 E22       0.103000
     47 H15          3.1160    -1.3010    -2.8370 ha         1 E22       0.103000
     48 H16          1.3980    -3.6960     1.1160 ha         1 E22       0.098000
     49 H17          4.6880    -2.2720    -1.2050 ha         1 E22       0.098000
     50 H18          3.8280    -3.4410     0.7890 ha         1 E22       0.098000
     51 H19          0.4970     5.3870    -4.3130 hc         1 E22       0.067000
     52 H20         -0.6000     6.3420    -5.3180 hc         1 E22       0.067000
     53 H21         -1.8600     2.0120    -5.3750 h1         1 E22       0.117000
     54 H22         -1.5770     4.5140    -6.1760 hc         1 E22       0.073500
     55 H23         -0.8190     3.6460    -4.8440 hc         1 E22       0.073500
     56 H24         -0.8800     2.3040    -7.6990 hc         1 E22       0.086000
     57 H25          0.5130     1.3610    -7.1520 hc         1 E22       0.086000
     58 H26         -1.2740    -0.5120    -6.9670 h1         1 E22       0.062000
     59 H27          0.9520     2.8520    -5.2860 hc         1 E22       0.090000
     60 H28          1.8160     5.9260    -6.5320 DU         1 E22       0.194000
     61 H29          0.6000     7.2100    -6.5290 hx         1 E22       0.186000
     62 H30          0.6520     0.7210    -4.9400 hn         1 E22       0.097000
     63 H31          1.6630     5.5880    -8.1530 hn         1 E22       0.067000
     64 H32         -3.3360    -1.1010    -6.0180 ho         1 E22       0.199000
     65 O4           2.1350     2.9540    -7.5340 o          1 E22      -0.376000
@<TRIPOS>BOND
     1     1     2 1   
     2     1     3 1   
     3     1    11 1   
     4     3     4 1   
     5     3    35 1   
     6     4     5 1   
     7     4    36 1   
     8     5     6 1   
     9     5    10 1   
    10     6     7 1   
    11     6    37 1   
    12     7     8 1   
    13     7    38 1   
    14     8     9 1   
    15     8    39 1   
    16     9    10 1   
    17     9    40 1   
    18    10    41 1   
    19    11    12 1   
    20    11    42 1   
    21    12    13 1   
    22    12    15 1   
    23    12    43 1   
    24    13    14 1   
    25    13    32 1   
    26    15    16 1   
    27    15    44 1   
    28    15    45 1   
    29    16    17 1   
    30    16    18 1   
    31    17    19 1   
    32    17    46 1   
    33    18    20 1   
    34    18    47 1   
    35    19    21 1   
    36    19    48 1   
    37    20    21 1   
    38    20    49 1   
    39    21    50 1   
    40    22    24 1   
    41    22    30 1   
    42    22    51 1   
    43    22    52 1   
    44    23    26 1   
    45    23    28 1   
    46    23    32 1   
    47    23    53 1   
    48    24    29 1   
    49    24    54 1   
    50    24    55 1   
    51    25    29 1   
    52    25    33 1   
    53    25    65 1   
    54    26    29 1   
    55    26    56 1   
    56    26    57 1   
    57    27    28 1   
    58    27    31 1   
    59    28    34 1   
    60    28    58 1   
    61    29    59 1   
    62    30    33 1   
    63    30    60 1   
    64    30    61 1   
    65    32    62 1   
    66    33    60 1   
    67    33    63 1   
    68    34    64 1   
@<TRIPOS>SUBSTRUCTURE
     1 E22         1 TEMP              0 ****  ****    0 ROOT
