@<TRIPOS>MOLECULE
molecule
   65    67     1     0     0
SMALL
bcc


@<TRIPOS>ATOM
      1 C5           0.0000     0.0000     0.0000 c          1 E22       0.656300
      2 O2           1.2170     0.0000     0.0000 o          1 E22      -0.621100
      3 C9          -0.7320     0.0000     1.2690 ce         1 E22      -0.249200
      4 C16         -0.0570     0.0010     2.4360 cf         1 E22      -0.046200
      5 C21         -0.7940     0.0020     3.7100 ca         1 E22      -0.028800
      6 C14         -2.1920    -0.0040     3.7150 ca         1 E22      -0.112000
      7 C8          -2.8740    -0.0040     4.9140 ca         1 E22      -0.152500
      8 C4          -2.1770     0.0030     6.1100 ca         1 E22      -0.105000
      9 C10         -0.7940     0.0090     6.1140 ca         1 E22      -0.152500
     10 C26         -0.0970     0.0030     4.9230 ca         1 E22      -0.112000
     11 N1          -0.6740     0.0040    -1.1670 ns         1 E22      -0.596900
     12 C1           0.0580     0.0030    -2.4350 c3         1 E22      -0.123300
     13 C3          -0.8040     0.6090    -3.5130 c          1 E22       0.657100
     14 O1          -1.9200     1.0030    -3.2480 o          1 E22      -0.514100
     15 C2           0.4160    -1.4340    -2.8170 c3         1 E22      -0.081100
     16 C7           1.3770    -1.9990    -1.8020 ca         1 E22      -0.062300
     17 C12          0.8950    -2.6600    -0.6880 ca         1 E22      -0.125500
     18 C18          2.7390    -1.8610    -1.9890 ca         1 E22      -0.125500
     19 C22          1.7760    -3.1780     0.2420 ca         1 E22      -0.117500
     20 C23          3.6200    -2.3790    -1.0590 ca         1 E22      -0.117500
     21 C20          3.1380    -3.0350     0.0590 ca         1 E22      -0.114000
     22 C6           0.1020     5.5170    -5.3130 c3         1 E22      -0.468400
     23 C11         -1.1720     1.3030    -5.8200 c3         1 E22       0.102700
     24 C13         -0.6290     4.2360    -5.7330 c3         1 E22      -0.317400
     25 C15          1.3870     3.8230    -7.1230 c          1 E22       0.663500
     26 C17         -0.2860     2.0220    -6.8380 c3         1 E22      -0.469400
     27 C19         -2.8040     0.7880    -7.5750 c1         1 E22       0.196700
     28 C24         -1.9630     0.1970    -6.5230 c3         1 E22       0.237200
     29 C25          0.4160     3.2010    -6.1600 c3         1 E22      -0.221700
     30 C27          0.7540     6.1370    -6.5490 c3         1 E22      -0.341000
     31 N2          -3.4450     1.2340    -8.4020 n1         1 E22      -0.351800
     32 N3          -0.3340     0.7140    -4.7730 ns         1 E22      -0.576900
     33 N4           1.5390     5.1400    -7.2660 ns         1 E22      -0.339900
     34 O3          -2.7910    -0.4740    -5.5720 oh         1 E22      -0.573800
     35 H1          -1.5670     0.6890     1.2400 ha         1 E22       0.151000
     36 H3           0.9520     0.2540     2.1330 ha         1 E22       0.177000
     37 H5          -2.9600    -0.0100     2.9510 ha         1 E22       0.145500
     38 H6          -3.9500     0.1080     4.9780 ha         1 E22       0.135000
     39 H7          -2.7830    -0.0380     7.0070 ha         1 E22       0.128000
     40 H8          -0.0430    -0.1660     6.8750 ha         1 E22       0.135000
     41 H9           0.9010    -0.2940     5.2210 ha         1 E22       0.145500
     42 H10         -0.7540    -0.5830    -1.9740 hn         1 E22       0.424500
     43 H11          0.9660     0.5850    -2.3290 h1         1 E22       0.097700
     44 H12         -0.4940    -1.8850    -2.4390 hc         1 E22       0.078700
     45 H13          0.4460    -1.2430    -3.8830 hc         1 E22       0.078700
     46 H14         -0.0920    -2.3360    -0.3810 ha         1 E22       0.131000
     47 H15          3.1490    -1.0780    -2.6150 ha         1 E22       0.131000
     48 H16          1.3040    -3.4800     1.1690 ha         1 E22       0.132500
     49 H17          4.6770    -2.1510    -1.1090 ha         1 E22       0.132500
     50 H18          3.9250    -3.6200     0.5190 ha         1 E22       0.131000
     51 H19         -0.7240     6.0450    -4.8510 hc         1 E22       0.165700
     52 H20          0.3490     6.1140    -6.1820 hc         1 E22       0.165700
     53 H21         -1.8600     2.0120    -5.3750 h1         1 E22       0.101700
     54 H22         -0.1710     3.3970    -6.2440 hc         1 E22       0.216700
     55 H23         -1.0850     4.1760    -4.7520 hc         1 E22       0.216700
     56 H24         -0.3490     1.7230    -7.8780 hc         1 E22       0.169200
     57 H25          0.6250     2.4990    -6.4960 hc         1 E22       0.169200
     58 H26         -1.2740    -0.5120    -6.9670 h1         1 E22       0.059700
     59 H27          0.9520     2.8520    -5.2860 hc         1 E22       0.119700
     60 H28          1.5510     5.4950    -6.9020 h1         1 E22       0.175200
     61 H29          1.4040     6.9450    -6.2350 h1         1 E22       0.175200
     62 H30          0.4430     1.1700    -5.2070 hn         1 E22       0.310500
     63 H31          1.1600     5.3910    -8.1580 hn         1 E22       0.327500
     64 H32         -2.7470    -1.4100    -5.6800 ho         1 E22       0.412000
     65 O4           2.4050     3.6450    -7.1010 o          1 E22      -0.433500
@<TRIPOS>BOND
     1    31    27 3
     2    27    28 1
     3    34    28 1
     4    28    23 1
     5    23    32 1
     6    23    26 1
     7    32    13 1
     8    14    13 2
     9    15    16 1
    10    15    12 1
    11    26    29 1
    12    13    12 1
    13    16    17 ar
    14    16    18 ar
    15    17    19 ar
    16    18    20 ar
    17    12    11 1
    18    19    21 ar
    19    20    21 ar
    20    29    24 1
    21    29    25 1
    22    24    22 1
    23    65    25 2
    24    11     1 1
    25    25    33 1
    26    22    30 1
    27     2     1 2
    28     1     3 1
    29    33    30 1
    30     3     4 2
    31     4     5 1
    32     5    10 ar
    33     5     6 ar
    34    10     9 ar
    35     6     7 ar
    36     9     8 ar
    37     7     8 ar
    38     3    35 1
    39     4    36 1
    40     6    37 1
    41     7    38 1
    42     8    39 1
    43     9    40 1
    44    10    41 1
    45    11    42 1
    46    12    43 1
    47    15    44 1
    48    15    45 1
    49    17    46 1
    50    18    47 1
    51    19    48 1
    52    20    49 1
    53    21    50 1
    54    22    51 1
    55    22    52 1
    56    23    53 1
    57    24    54 1
    58    24    55 1
    59    26    56 1
    60    26    57 1
    61    28    58 1
    62    29    59 1
    63    30    60 1
    64    30    61 1
    65    32    62 1
    66    33    63 1
    67    34    64 1
@<TRIPOS>SUBSTRUCTURE
     1 E22         1 TEMP              0 ****  ****    0 ROOT
