@<TRIPOS>MOLECULE
E23
   44    45     1     0     0
SMALL
bcc


@<TRIPOS>ATOM
      1 OAD          0.0000     0.0000     0.0000 o          1 E23      -0.635100
      2 CAR          1.2160     0.0000     0.0000 c          1 E23       0.579700
      3 CAU          1.9550     0.0000     1.2800 ca         1 E23      -0.091600
      4 CAJ          3.3520     0.0010     1.2830 ca         1 E23      -0.094000
      5 CAH          4.0350    -0.0000     2.4810 ca         1 E23      -0.077000
      6 CAI          3.3410    -0.0010     3.6780 ca         1 E23      -0.086000
      7 CAM          1.9570    -0.0020     3.6820 ca         1 E23      -0.058000
      8 CAV          1.2610     0.0050     2.4910 ca         1 E23      -0.146300
      9 CAX         -0.2460     0.0040     2.4970 c3         1 E23       0.660200
     10 FAG         -0.7140    -1.1340     1.8320 f          1 E23      -0.205967
     11 FAF         -0.7070    -0.0040     3.8180 f          1 E23      -0.205967
     12 FAE         -0.7150     1.1500     1.8460 f          1 E23      -0.205967
     13 NAQ          1.8890    -0.0040    -1.1680 ns         1 E23      -0.187900
     14 CAP          1.1570    -0.0100    -2.4360 c3         1 E23       0.113300
     15 CAS          2.1360    -0.0150    -3.5820 ca         1 E23      -0.137300
     16 CAL          2.5880     1.1800    -4.1080 ca         1 E23      -0.080500
     17 CAO          3.4870     1.1760    -5.1600 ca         1 E23      -0.109000
     18 CAT          3.9320    -0.0240    -5.6830 ca         1 E23      -0.065300
     19 CAW          4.9110    -0.0280    -6.8290 c3         1 E23      -0.016700
     20 CAA          6.1940     0.6900    -6.4060 c3         1 E23       0.005567
     21 CAC          5.2380    -1.4720    -7.2150 c3         1 E23       0.005567
     22 CAB          4.2950     0.6940    -8.0300 c3         1 E23       0.005567
     23 CAN          3.4800    -1.2190    -5.1560 ca         1 E23      -0.109000
     24 CAK          2.5850    -1.2140    -4.1020 ca         1 E23      -0.080500
     25 H1           3.8970     0.0010     0.3470 ha         1 E23       0.110000
     26 H2           5.1180     0.0000     2.4840 ha         1 E23       0.107000
     27 H3           3.8830    -0.0050     4.6160 ha         1 E23       0.110000
     28 H4           1.4190    -0.0000     4.6220 ha         1 E23       0.125000
     29 H5           2.8900    -0.0030    -1.1680 hn         1 E23       0.180500
     30 H6           0.5340     0.8740    -2.4970 h1         1 E23       0.032700
     31 H7           0.5350    -0.8950    -2.4890 h1         1 E23       0.032700
     32 H8           2.2390     2.1200    -3.6970 ha         1 E23       0.108500
     33 H9           3.8420     2.1130    -5.5730 ha         1 E23       0.117500
     34 H10          5.9910     1.7460    -6.2770 hc         1 E23       0.007811
     35 H11          6.9500     0.5590    -7.1710 hc         1 E23       0.007811
     36 H12          6.5500     0.2730    -5.4720 hc         1 E23       0.007811
     37 H13          5.9410    -1.4750    -8.0390 hc         1 E23       0.007811
     38 H14          5.6740    -1.9830    -6.3650 hc         1 E23       0.007811
     39 H15          4.3290    -1.9800    -7.5140 hc         1 E23       0.007811
     40 H16          4.2000     1.7500    -7.8070 hc         1 E23       0.007811
     41 H17          3.3150     0.2800    -8.2360 hc         1 E23       0.007811
     42 H18          4.9320     0.5630    -8.8960 hc         1 E23       0.007811
     43 H19          3.8300    -2.1590    -5.5650 ha         1 E23       0.117500
     44 H20          2.2310    -2.1500    -3.6880 ha         1 E23       0.108500
@<TRIPOS>BOND
     1     1     2 2   
     2     2     3 1   
     3     2    13 1   
     4     3     4 ar  
     5     3     8 ar  
     6     4     5 ar  
     7     4    25 1   
     8     5     6 ar  
     9     5    26 1   
    10     6     7 ar  
    11     6    27 1   
    12     7     8 ar  
    13     7    28 1   
    14     8     9 1   
    15     9    10 1   
    16     9    11 1   
    17     9    12 1   
    18    13    14 1   
    19    13    29 1   
    20    14    15 1   
    21    14    30 1   
    22    14    31 1   
    23    15    16 ar  
    24    15    24 ar  
    25    16    17 ar  
    26    16    32 1   
    27    17    18 ar  
    28    17    33 1   
    29    18    19 1   
    30    18    23 ar  
    31    19    20 1   
    32    19    21 1   
    33    19    22 1   
    34    20    34 1   
    35    20    35 1   
    36    20    36 1   
    37    21    37 1   
    38    21    38 1   
    39    21    39 1   
    40    22    40 1   
    41    22    41 1   
    42    22    42 1   
    43    23    24 ar  
    44    23    43 1   
    45    24    44 1   
@<TRIPOS>SUBSTRUCTURE
     1 E23         1 TEMP              0 ****  ****    0 ROOT
