@<TRIPOS>MOLECULE
molecule
   44    45     1     0     0
SMALL
bcc


@<TRIPOS>ATOM
      1 OAD          0.0000     0.0000     0.0000 o          1 E23      -0.590100
      2 CAR          1.2160     0.0000     0.0000 c          1 E23       0.661700
      3 CAU          1.9550     0.0000     1.2800 ca         1 E23      -0.098600
      4 CAJ          3.3520     0.0010     1.2830 ca         1 E23      -0.111000
      5 CAH          4.0350    -0.0000     2.4810 ca         1 E23      -0.112000
      6 CAI          3.3410    -0.0010     3.6780 ca         1 E23      -0.113000
      7 CAM          1.9570    -0.0020     3.6820 ca         1 E23      -0.094000
      8 CAV          1.2610     0.0050     2.4910 ca         1 E23      -0.125300
      9 CAX         -0.2460     0.0040     2.4970 c3         1 E23       0.685200
     10 FAG         -0.7140    -1.1340     1.8320 f          1 E23      -0.215633
     11 FAF         -0.7070    -0.0040     3.8180 f          1 E23      -0.215633
     12 FAE         -0.7150     1.1500     1.8460 f          1 E23      -0.215633
     13 NAQ          1.8890    -0.0040    -1.1680 ns         1 E23      -0.576900
     14 CAP          1.1570    -0.0100    -2.4360 c3         1 E23       0.163300
     15 CAS          2.1360    -0.0150    -3.5820 ca         1 E23      -0.127300
     16 CAL          2.5880     1.1800    -4.1080 ca         1 E23      -0.110000
     17 CAO          3.4870     1.1760    -5.1600 ca         1 E23      -0.130500
     18 CAT          3.9320    -0.0240    -5.6830 ca         1 E23      -0.060300
     19 CAW          4.9110    -0.0280    -6.8290 c3         1 E23      -0.026700
     20 CAA          6.1940     0.6900    -6.4060 c3         1 E23      -0.081100
     21 CAC          5.2380    -1.4720    -7.2150 c3         1 E23      -0.081100
     22 CAB          4.2950     0.6940    -8.0300 c3         1 E23      -0.081100
     23 CAN          3.4800    -1.2190    -5.1560 ca         1 E23      -0.130500
     24 CAK          2.5850    -1.2140    -4.1020 ca         1 E23      -0.110000
     25 H1           3.8970     0.0010     0.3470 ha         1 E23       0.135000
     26 H2           5.1180     0.0000     2.4840 ha         1 E23       0.138000
     27 H3           3.8830    -0.0050     4.6160 ha         1 E23       0.141000
     28 H4           1.4190    -0.0000     4.6220 ha         1 E23       0.156000
     29 H5           2.8900    -0.0030    -1.1680 hn         1 E23       0.317500
     30 H6           0.5340     0.8740    -2.4970 h1         1 E23       0.062700
     31 H7           0.5350    -0.8950    -2.4890 h1         1 E23       0.062700
     32 H8           2.2390     2.1200    -3.6970 ha         1 E23       0.135000
     33 H9           3.8420     2.1130    -5.5730 ha         1 E23       0.137500
     34 H10          5.9910     1.7460    -6.2770 hc         1 E23       0.037811
     35 H11          6.9500     0.5590    -7.1710 hc         1 E23       0.037811
     36 H12          6.5500     0.2730    -5.4720 hc         1 E23       0.037811
     37 H13          5.9410    -1.4750    -8.0390 hc         1 E23       0.037811
     38 H14          5.6740    -1.9830    -6.3650 hc         1 E23       0.037811
     39 H15          4.3290    -1.9800    -7.5140 hc         1 E23       0.037811
     40 H16          4.2000     1.7500    -7.8070 hc         1 E23       0.037811
     41 H17          3.3150     0.2800    -8.2360 hc         1 E23       0.037811
     42 H18          4.9320     0.5630    -8.8960 hc         1 E23       0.037811
     43 H19          3.8300    -2.1590    -5.5650 ha         1 E23       0.137500
     44 H20          2.2310    -2.1500    -3.6880 ha         1 E23       0.135000
@<TRIPOS>BOND
     1    10     9 1
     2    12     9 1
     3     9     8 1
     4     9    11 1
     5     7     6 ar
     6     7     8 ar
     7     6     5 ar
     8     8     3 ar
     9     5     4 ar
    10     3     4 ar
    11     3     2 1
    12     1     2 2
    13     2    13 1
    14    13    14 1
    15    14    15 1
    16    16    15 ar
    17    16    17 ar
    18    15    24 ar
    19    17    18 ar
    20    24    23 ar
    21    21    19 1
    22    18    23 ar
    23    18    19 1
    24    19    20 1
    25    19    22 1
    26     4    25 1
    27     5    26 1
    28     6    27 1
    29     7    28 1
    30    13    29 1
    31    14    30 1
    32    14    31 1
    33    16    32 1
    34    17    33 1
    35    20    34 1
    36    20    35 1
    37    20    36 1
    38    21    37 1
    39    21    38 1
    40    21    39 1
    41    22    40 1
    42    22    41 1
    43    22    42 1
    44    23    43 1
    45    24    44 1
@<TRIPOS>SUBSTRUCTURE
     1 E23         1 TEMP              0 ****  ****    0 ROOT
