@<TRIPOS>MOLECULE
E24
   32    33     1     0     0
SMALL
bcc


@<TRIPOS>ATOM
      1 ClF          0.0000     0.0000     0.0000 cl         1 E24      -0.001400
      2 CAR          1.7360     0.0000     0.0000 ca         1 E24      -0.020600
      3 CAM          2.4280     0.0000     1.1980 ca         1 E24      -0.099000
      4 CAQ          3.8110    -0.0000     1.1970 ca         1 E24      -0.022600
      5 ClE          4.6800     0.0000     2.7000 cl         1 E24      -0.010400
      6 CAK          4.5010    -0.0010    -0.0020 ca         1 E24      -0.100000
      7 CAL          3.8100    -0.0010    -1.1990 ca         1 E24      -0.062000
      8 CAS          2.4280    -0.0060    -1.1980 ca         1 E24      -0.124300
      9 CAN          1.6750    -0.0130    -2.5030 c3         1 E24       0.106300
     10 NAO          1.2220     1.3460    -2.8130 ns         1 E24      -0.188900
     11 CAP          0.5230     1.5830    -3.9410 c          1 E24       0.583700
     12 OAA          0.2670     0.6690    -4.7000 o          1 E24      -0.632100
     13 CAT          0.0670     2.9540    -4.2530 ca         1 E24      -0.092600
     14 CAI          0.3630     4.0070    -3.3860 ca         1 E24      -0.093000
     15 CAG         -0.0640     5.2840    -3.6830 ca         1 E24      -0.076000
     16 CAH         -0.7880     5.5220    -4.8390 ca         1 E24      -0.085000
     17 CAJ         -1.0860     4.4830    -5.7030 ca         1 E24      -0.058000
     18 CAU         -0.6580     3.2030    -5.4200 ca         1 E24      -0.145300
     19 CAV         -0.9790     2.0740    -6.3650 c3         1 E24       0.660200
     20 FAC         -1.7380     1.1070    -5.6970 f          1 E24      -0.205633
     21 FAD         -1.7070     2.5680    -7.4520 f          1 E24      -0.205633
     22 FAB          0.2110     1.4980    -6.8240 f          1 E24      -0.205633
     23 H1           1.8870    -0.0390     2.1360 ha         1 E24       0.129000
     24 H2           5.5850     0.0010    -0.0020 ha         1 E24       0.120000
     25 H3           4.3510    -0.0040    -2.1370 ha         1 E24       0.117000
     26 H4           0.8170    -0.6700    -2.4220 h1         1 E24       0.039700
     27 H5           2.3260    -0.3660    -3.2940 h1         1 E24       0.039700
     28 H6           1.4500     2.1010    -2.1970 hn         1 E24       0.181500
     29 H7           0.9300     3.8210    -2.4810 ha         1 E24       0.109000
     30 H8           0.1660     6.1010    -3.0110 ha         1 E24       0.108000
     31 H9          -1.1240     6.5260    -5.0670 ha         1 E24       0.110000
     32 H10         -1.6510     4.6770    -6.6060 ha         1 E24       0.126000
@<TRIPOS>BOND
     1     1     2 1   
     2     2     3 ar  
     3     2     8 ar  
     4     3     4 ar  
     5     3    23 1   
     6     4     5 1   
     7     4     6 ar  
     8     6     7 ar  
     9     6    24 1   
    10     7     8 ar  
    11     7    25 1   
    12     8     9 1   
    13     9    10 1   
    14     9    26 1   
    15     9    27 1   
    16    10    11 1   
    17    10    28 1   
    18    11    12 2   
    19    11    13 1   
    20    13    14 ar  
    21    13    18 ar  
    22    14    15 ar  
    23    14    29 1   
    24    15    16 ar  
    25    15    30 1   
    26    16    17 ar  
    27    16    31 1   
    28    17    18 ar  
    29    17    32 1   
    30    18    19 1   
    31    19    20 1   
    32    19    21 1   
    33    19    22 1   
@<TRIPOS>SUBSTRUCTURE
     1 E24         1 TEMP              0 ****  ****    0 ROOT
