@<TRIPOS>MOLECULE
E27
   42    45     1     0     0
SMALL
bcc


@<TRIPOS>ATOM
      1 N1           0.0000     0.0000     0.0000 na         1 E27       0.367700
      2 C2           1.3660     0.0000     0.0000 cc         1 E27       0.204700
      3 N3           1.8070     0.0000     1.2360 nd         1 E27      -0.524100
      4 C4           0.7540    -0.0010     2.0920 ca         1 E27      -0.054900
      5 C5           0.6390    -0.0020     3.4910 ca         1 E27       0.467200
      6 N6          -0.5320    -0.0030     4.0780 nb         1 E27      -0.565000
      7 C7          -1.6780    -0.0030     3.3860 ca         1 E27       0.375600
      8 C8          -1.6550    -0.0010     1.9690 ca         1 E27      -0.107300
      9 C9          -0.4090    -0.0000     1.3120 ca         1 E27      -0.262200
     10 C10         -2.9180    -0.0040     4.0460 ca         1 E27      -0.126300
     11 C11         -4.0720    -0.0040     3.3230 ca         1 E27      -0.092000
     12 C12         -4.0460    -0.0030     1.9310 ca         1 E27      -0.078000
     13 C13         -2.8620    -0.0010     1.2560 ca         1 E27      -0.105000
     14 S14          2.3820     0.0000    -1.4390 ss         1 E27      -0.224300
     15 C15          4.0200     0.0000    -0.6690 c3         1 E27      -0.007300
     16 C16          5.0790     0.0010    -1.7410 c          1 E27       0.625700
     17 O17          4.7590     0.0010    -2.9110 o          1 E27      -0.500100
     18 C18          6.5020     0.0010    -1.3690 ca         1 E27      -0.183600
     19 C19          7.4890     0.0070    -2.3620 ca         1 E27       0.094000
     20 C20          8.8200     0.0070    -2.0060 ca         1 E27      -0.232500
     21 C21          9.1820     0.0020    -0.6680 ca         1 E27       0.035400
     22 C22          8.2110    -0.0050     0.3200 ca         1 E27      -0.099000
     23 C23          6.8760     0.0000    -0.0220 ca         1 E27       0.040000
     24 S24         10.0630     0.0140    -3.2540 sy         1 E27       0.943200
     25 O25         10.9870    -1.0080    -2.9050 o          1 E27      -0.486800
     26 Cl26        10.8620     0.0010    -0.2290 cl         1 E27       0.030600
     27 O27          9.3820     0.0520    -4.5000 o          1 E27      -0.486800
     28 N28         10.8800     1.4490    -3.1230 nz         1 E27      -0.145500
     29 H5           1.5370    -0.0010     4.0970 h4         1 E27      -0.017900
     30 H10         -2.9560    -0.0040     5.1290 ha         1 E27       0.122000
     31 H11         -5.0250    -0.0050     3.8380 ha         1 E27       0.110000
     32 H12         -4.9780    -0.0030     1.3780 ha         1 E27       0.107000
     33 H13         -2.8540    -0.0010     0.1730 ha         1 E27       0.098000
     34 H15          4.1300     0.8850    -0.0530 h1         1 E27       0.073700
     35 H15A         4.1300    -0.8840    -0.0540 h1         1 E27       0.073700
     36 H19          7.2070     0.0110    -3.4080 ha         1 E27       0.159000
     37 H22          8.5020    -0.0070     1.3640 ha         1 E27       0.145000
     38 H23          6.1180    -0.0050     0.7520 ha         1 E27       0.138000
     39 HN28        10.2280     2.1910    -2.9670 hn         1 E27       0.317800
     40 HN2A        11.5200     1.4000    -2.3550 hn         1 E27       0.317800
     41 HN1         -0.5930    -0.0000    -0.8060 hn         1 E27       0.134700
     42 H283        11.3970     1.6160    -3.9640 hn         1 E27       0.317800
@<TRIPOS>BOND
     1     1     2 1   
     2     1     9 1   
     3     1    41 1   
     4     2     3 2   
     5     2    14 1   
     6     3     4 1   
     7     4     5 ar  
     8     4     9 ar  
     9     5     6 ar  
    10     5    29 1   
    11     6     7 ar  
    12     7     8 ar  
    13     7    10 ar  
    14     8     9 ar  
    15     8    13 ar  
    16    10    11 ar  
    17    10    30 1   
    18    11    12 ar  
    19    11    31 1   
    20    12    13 ar  
    21    12    32 1   
    22    13    33 1   
    23    14    15 1   
    24    15    16 1   
    25    15    34 1   
    26    15    35 1   
    27    16    17 2   
    28    16    18 1   
    29    18    19 ar  
    30    18    23 ar  
    31    19    20 ar  
    32    19    36 1   
    33    20    21 ar  
    34    20    24 1   
    35    21    22 ar  
    36    21    26 1   
    37    22    23 ar  
    38    22    37 1   
    39    23    38 1   
    40    24    25 2   
    41    24    27 2   
    42    24    28 1   
    43    28    39 1   
    44    28    40 1   
    45    28    42 1   
@<TRIPOS>SUBSTRUCTURE
     1 E27         1 TEMP              0 ****  ****    0 ROOT
