@<TRIPOS>MOLECULE
E28
   58    62     1     0     0
SMALL
bcc


@<TRIPOS>ATOM
      1 O1           0.0000     0.0000     0.0000 o          1 E28      -0.638100
      2 C16          1.2170     0.0000     0.0000 c          1 E28       0.625700
      3 N5           1.8900     0.0000     1.1680 ns         1 E28      -0.197900
      4 C17          1.1580    -0.0020     2.4360 c3         1 E28       0.126300
      5 C18          2.1380    -0.0020     3.5820 ca         1 E28      -0.172300
      6 C25          2.5880     1.1940     4.1100 ca         1 E28      -0.048000
      7 C24          3.4810     1.1990     5.1610 ca         1 E28      -0.123000
      8 C23          3.9390    -0.0010     5.6980 ca         1 E28       0.156100
      9 O2           4.8020    -0.2240     6.7270 os         1 E28      -0.291900
     10 C22          5.3030    -1.5700     6.6430 c3         1 E28       0.209400
     11 C21          4.1560    -2.3170     5.9240 c3         1 E28       0.009900
     12 C20          3.4830    -1.1960     5.1550 ca         1 E28      -0.201300
     13 C19          2.5840    -1.1990     4.1120 ca         1 E28      -0.033000
     14 C14          1.9510    -0.0040    -1.2700 cc         1 E28      -0.400900
     15 C13          1.3930    -0.0040    -2.5170 cd         1 E28      -0.056000
     16 N4           3.3210    -0.0040    -1.4110 na         1 E28       0.449900
     17 C15          3.6280    -0.0080    -2.7240 cc         1 E28      -0.304300
     18 C12          2.4540    -0.0090    -3.4460 cd         1 E28      -0.150000
     19 C11          2.3300    -0.0120    -4.9200 cd         1 E28      -0.093300
     20 N3           3.0190     0.7770    -5.7920 na         1 E28       0.478400
     21 N2           2.6030     0.4560    -7.0890 nd         1 E28      -0.641800
     22 C10          1.7000    -0.4860    -7.0270 cc         1 E28       0.426200
     23 C9           1.4960    -0.8220    -5.6770 cc         1 E28      -0.343300
     24 C4           0.5560    -1.8440    -5.1580 ca         1 E28       0.110000
     25 C3          -0.7970    -1.7830    -5.4870 ca         1 E28      -0.033000
     26 C5           1.0240    -2.8750    -4.3430 ca         1 E28      -0.056000
     27 C6           0.1450    -3.8250    -3.8630 ca         1 E28      -0.060000
     28 C7          -1.1980    -3.7550    -4.1890 ca         1 E28      -0.168300
     29 C8          -2.1520    -4.7960    -3.6620 c3         1 E28       0.011100
     30 N1          -2.4160    -5.7930    -4.7070 nz         1 E28       0.054400
     31 C2          -1.6670    -2.7380    -5.0010 ca         1 E28      -0.187300
     32 C1          -3.1300    -2.6700    -5.3500 c3         1 E28       0.633200
     33 F1          -3.3620    -1.5640    -6.1760 f          1 E28      -0.201967
     34 F2          -3.5050    -3.8390    -6.0220 f          1 E28      -0.201967
     35 F3          -3.8850    -2.5430    -4.1790 f          1 E28      -0.201967
     36 H14          2.8910    -0.0070     1.1680 hn         1 E28       0.165500
     37 H16          0.5340     0.8820     2.4940 h1         1 E28       0.030700
     38 H15          0.5360    -0.8880     2.4920 h1         1 E28       0.030700
     39 H23          2.2350     2.1320     3.6980 ha         1 E28       0.111000
     40 H22          3.8260     2.1410     5.5710 ha         1 E28       0.120000
     41 H20          5.4430    -1.9750     7.6380 h1         1 E28       0.022200
     42 H21          6.1990    -1.5940     6.0360 h1         1 E28       0.022200
     43 H18          4.5610    -3.0500     5.2360 hc         1 E28       0.031200
     44 H19          3.4690    -2.7360     6.6500 hc         1 E28       0.031200
     45 H17          2.1880    -2.1770     3.8650 ha         1 E28       0.106000
     46 H12          0.3350    -0.0030    -2.7490 ha         1 E28       0.144000
     47 H5           3.9820    -0.0030    -0.6590 hn         1 E28       0.116700
     48 H13          4.6280    -0.0100    -3.1400 h4         1 E28       0.152000
     49 H4           3.7030     1.4650    -5.5480 hn         1 E28       0.157700
     50 H11          1.1980    -0.9370    -7.8740 h4         1 E28       0.006100
     51 H6          -1.1650    -0.9870    -6.1230 ha         1 E28       0.147000
     52 H7           2.0750    -2.9300    -4.0870 ha         1 E28       0.133000
     53 H8           0.5070    -4.6260    -3.2290 ha         1 E28       0.113000
     54 H9          -3.0820    -4.3200    -3.3730 hx         1 E28       0.093200
     55 H10         -1.7130    -5.2840    -2.7990 hx         1 E28       0.093200
     56 H1          -2.0480    -6.6790    -4.4230 hn         1 E28       0.230467
     57 H2          -1.9760    -5.5070    -5.5590 hn         1 E28       0.230467
     58 H131        -3.4030    -5.8720    -4.8510 hn         1 E28       0.230467
@<TRIPOS>BOND
     1     1     2 2   
     2     2     3 1   
     3     2    14 1   
     4     3     4 1   
     5     3    36 1   
     6     4     5 1   
     7     4    37 1   
     8     4    38 1   
     9     5     6 ar  
    10     5    13 ar  
    11     6     7 ar  
    12     6    39 1   
    13     7     8 ar  
    14     7    40 1   
    15     8     9 1   
    16     8    12 ar  
    17     9    10 1   
    18    10    11 1   
    19    10    41 1   
    20    10    42 1   
    21    11    12 1   
    22    11    43 1   
    23    11    44 1   
    24    12    13 ar  
    25    13    45 1   
    26    14    15 2   
    27    14    16 1   
    28    15    18 1   
    29    15    46 1   
    30    16    17 1   
    31    16    47 1   
    32    17    18 2   
    33    17    48 1   
    34    18    19 1   
    35    19    20 1   
    36    19    23 2   
    37    20    21 1   
    38    20    49 1   
    39    21    22 2   
    40    22    23 1   
    41    22    50 1   
    42    23    24 1   
    43    24    25 ar  
    44    24    26 ar  
    45    25    31 ar  
    46    25    51 1   
    47    26    27 ar  
    48    26    52 1   
    49    27    28 ar  
    50    27    53 1   
    51    28    29 1   
    52    28    31 ar  
    53    29    30 1   
    54    29    54 1   
    55    29    55 1   
    56    30    56 1   
    57    30    57 1   
    58    30    58 1   
    59    31    32 1   
    60    32    33 1   
    61    32    34 1   
    62    32    35 1   
@<TRIPOS>SUBSTRUCTURE
     1 E28         1 TEMP              0 ****  ****    0 ROOT
