@<TRIPOS>MOLECULE
molecule
   58    62     1     0     0
SMALL
bcc


@<TRIPOS>ATOM
      1 O1           0.0000     0.0000     0.0000 o          1 E28      -0.595100
      2 C16          1.2170     0.0000     0.0000 c          1 E28       0.695700
      3 N5           1.8900     0.0000     1.1680 ns         1 E28      -0.580900
      4 C17          1.1580    -0.0020     2.4360 c3         1 E28       0.170300
      5 C18          2.1380    -0.0020     3.5820 ca         1 E28      -0.160300
      6 C25          2.5880     1.1940     4.1100 ca         1 E28      -0.078000
      7 C24          3.4810     1.1990     5.1610 ca         1 E28      -0.148000
      8 C23          3.9390    -0.0010     5.6980 ca         1 E28       0.142100
      9 O2           4.8020    -0.2240     6.7270 os         1 E28      -0.307900
     10 C22          5.3030    -1.5700     6.6430 c3         1 E28       0.132400
     11 C21          4.1560    -2.3170     5.9240 c3         1 E28      -0.067100
     12 C20          3.4830    -1.1960     5.1550 ca         1 E28      -0.185300
     13 C19          2.5840    -1.1990     4.1120 ca         1 E28      -0.069000
     14 C14          1.9510    -0.0040    -1.2700 cc         1 E28      -0.187900
     15 C13          1.3930    -0.0040    -2.5170 cd         1 E28      -0.093000
     16 N4           3.3210    -0.0040    -1.4110 na         1 E28      -0.134100
     17 C15          3.6280    -0.0080    -2.7240 cc         1 E28      -0.108300
     18 C12          2.4540    -0.0090    -3.4460 cd         1 E28      -0.165000
     19 C11          2.3300    -0.0120    -4.9200 cd         1 E28       0.067700
     20 N3           3.0190     0.7770    -5.7920 na         1 E28      -0.023600
     21 N2           2.6030     0.4560    -7.0890 nd         1 E28      -0.484800
     22 C10          1.7000    -0.4860    -7.0270 cc         1 E28       0.360200
     23 C9           1.4960    -0.8220    -5.6770 cc         1 E28      -0.321300
     24 C4           0.5560    -1.8440    -5.1580 ca         1 E28       0.083000
     25 C3          -0.7970    -1.7830    -5.4870 ca         1 E28      -0.071000
     26 C5           1.0240    -2.8750    -4.3430 ca         1 E28      -0.085000
     27 C6           0.1450    -3.8250    -3.8630 ca         1 E28      -0.092000
     28 C7          -1.1980    -3.7550    -4.1890 ca         1 E28      -0.167300
     29 C8          -2.1520    -4.7960    -3.6620 c3         1 E28       0.145100
     30 N1          -2.4160    -5.7930    -4.7070 nz         1 E28      -0.811600
     31 C2          -1.6670    -2.7380    -5.0010 ca         1 E28      -0.161300
     32 C1          -3.1300    -2.6700    -5.3500 c3         1 E28       0.670200
     33 F1          -3.3620    -1.5640    -6.1760 f          1 E28      -0.220300
     34 F2          -3.5050    -3.8390    -6.0220 f          1 E28      -0.220300
     35 F3          -3.8850    -2.5430    -4.1790 f          1 E28      -0.220300
     36 H14          2.8910    -0.0070     1.1680 hn         1 E28       0.308500
     37 H16          0.5340     0.8820     2.4940 h1         1 E28       0.062200
     38 H15          0.5360    -0.8880     2.4920 h1         1 E28       0.062200
     39 H23          2.2350     2.1320     3.6980 ha         1 E28       0.143000
     40 H22          3.8260     2.1410     5.5710 ha         1 E28       0.150000
     41 H20          5.4430    -1.9750     7.6380 h1         1 E28       0.067700
     42 H21          6.1990    -1.5940     6.0360 h1         1 E28       0.067700
     43 H18          4.5610    -3.0500     5.2360 hc         1 E28       0.066700
     44 H19          3.4690    -2.7360     6.6500 hc         1 E28       0.066700
     45 H17          2.1880    -2.1770     3.8650 ha         1 E28       0.134000
     46 H12          0.3350    -0.0030    -2.7490 ha         1 E28       0.175000
     47 H5           3.9820    -0.0030    -0.6590 hn         1 E28       0.308700
     48 H13          4.6280    -0.0100    -3.1400 h4         1 E28       0.179000
     49 H4           3.7030     1.4650    -5.5480 hn         1 E28       0.344700
     50 H11          1.1980    -0.9370    -7.8740 h4         1 E28       0.054100
     51 H6          -1.1650    -0.9870    -6.1230 ha         1 E28       0.179000
     52 H7           2.0750    -2.9300    -4.0870 ha         1 E28       0.168000
     53 H8           0.5070    -4.6260    -3.2290 ha         1 E28       0.143000
     54 H9          -3.0820    -4.3200    -3.3730 hx         1 E28       0.119700
     55 H10         -1.7130    -5.2840    -2.7990 hx         1 E28       0.119700
     56 H1          -2.0480    -6.6790    -4.4230 hn         1 E28       0.457133
     57 H2          -1.9760    -5.5070    -5.5590 hn         1 E28       0.457133
     58 H131        -3.4030    -5.8720    -4.8510 hn         1 E28       0.457133
@<TRIPOS>BOND
     1    27    26 ar
     2    27    28 ar
     3    29    30 1
     4    29    28 1
     5    26    24 ar
     6    28    31 ar
     7    24    23 1
     8    24    25 ar
     9    31    25 ar
    10    31    32 1
    11    22    23 1
    12    22    21 2
    13    35    32 1
    14    23    19 2
    15    21    20 1
    16    32    33 1
    17    32    34 1
    18    19    20 1
    19    19    18 1
    20    15    18 1
    21    15    14 2
    22     4     3 1
    23     4     5 1
    24     3     2 1
    25    18    17 2
    26    14     2 1
    27    14    16 1
    28     2     1 2
    29     5     6 ar
    30     5    13 ar
    31    17    16 1
    32     6     7 ar
    33    13    12 ar
    34     7     8 ar
    35    12     8 ar
    36    12    11 1
    37     8     9 1
    38    11    10 1
    39     9    10 1
    40     3    36 1
    41     4    37 1
    42     4    38 1
    43     6    39 1
    44     7    40 1
    45    10    41 1
    46    10    42 1
    47    11    43 1
    48    11    44 1
    49    13    45 1
    50    15    46 1
    51    16    47 1
    52    17    48 1
    53    20    49 1
    54    22    50 1
    55    25    51 1
    56    26    52 1
    57    27    53 1
    58    29    54 1
    59    29    55 1
    60    30    56 1
    61    30    57 1
    62    58    30 1
@<TRIPOS>SUBSTRUCTURE
     1 E28         1 TEMP              0 ****  ****    0 ROOT
