@<TRIPOS>MOLECULE
molecule
   23    24     1     0     0
SMALL
bcc


@<TRIPOS>ATOM
      1 C24          0.0000     0.0000     0.0000 c          1 E29       0.859800
      2 O25          1.2160     0.0000     0.0000 o          1 E29      -0.825800
      3 C26         -0.7310     0.0000     1.2650 ce         1 E29      -0.104200
      4 C27         -0.0550    -0.0020     2.4350 cf         1 E29      -0.199200
      5 C28         -0.7900    -0.0020     3.7080 ca         1 E29       0.034200
      6 C29         -2.1510     0.3200     3.7350 ca         1 E29      -0.130000
      7 C30         -2.8340     0.3170     4.9330 ca         1 E29       0.045400
      8 C31         -2.1770    -0.0040     6.1110 ca         1 E29      -0.154000
      9 C32         -0.8340    -0.3230     6.0990 ca         1 E29      -0.116000
     10 C33         -0.1310    -0.3310     4.9040 ca         1 E29      -0.032200
     11 N34          1.2280    -0.6600     4.8900 na         1 E29       0.014500
     12 C35          2.1950    -0.1920     5.7100 cc         1 E29       0.393400
     13 N36          3.3170    -0.7570     5.3500 nd         1 E29      -0.430000
     14 N37          3.1270    -1.5510     4.3590 nd         1 E29      -0.021000
     15 N38          1.8820    -1.5530     4.0220 nc         1 E29      -0.168800
     16 Cl          -4.5220     0.7170     4.9660 cl         1 E29      -0.123400
     17 H26         -1.8140     0.0010     1.2650 ha         1 E29       0.103000
     18 H27          1.0280    -0.0030     2.4350 ha         1 E29       0.171000
     19 H29         -2.6680     0.5710     2.8170 ha         1 E29       0.168000
     20 H31         -2.7210    -0.0020     7.0480 ha         1 E29       0.137000
     21 H32         -0.3290    -0.5740     7.0240 ha         1 E29       0.131000
     22 H35          2.0650     0.5200     6.5160 h5         1 E29       0.071100
     23 OXT         -0.6750     0.0070    -1.1680 o          1 E29      -0.825800
@<TRIPOS>BOND
     1     1     2 1
     2     1     3 1
     3     3     4 2
     4     4     5 1
     5     5     6 ar
     6     5    10 ar
     7     6     7 ar
     8     7     8 ar
     9     7    16 1
    10     8     9 ar
    11     9    10 ar
    12    10    11 1
    13    11    12 1
    14    11    15 1
    15    12    13 2
    16    13    14 1
    17    14    15 2
    18     3    17 1
    19     4    18 1
    20     6    19 1
    21     8    20 1
    22     9    21 1
    23    12    22 1
    24     1    23 1
@<TRIPOS>SUBSTRUCTURE
     1 E29         1 TEMP              0 ****  ****    0 ROOT
