@<TRIPOS>MOLECULE
E29
   23    22     1     0     0
SMALL
bcc


@<TRIPOS>ATOM
      1 C24         2.4080   -1.3480    0.2010 c1        1 E29      0.912000
      2 O25         2.9800   -0.3050    0.1630 o         1 E29     -0.457500
      3 C26        -0.9270    0.9910    1.1280 c2        1 E29     -0.230100
      4 C27        -1.1260    0.7660    2.3860 c1        1 E29     -0.119800
      5 C28        -1.3700    0.5030    3.6620 ce        1 E29     -0.028700
      6 C29        -2.7310    0.7820    4.1430 ce        1 E29     -0.085000
      7 C30        -3.3780    0.0050    5.0150 c2        1 E29     -0.069600
      8 C31        -0.7900    0.1530    7.1600 c1        1 E29     -0.332500
      9 C32        -0.6200    0.0770    5.9710 cg        1 E29     -0.052200
     10 C33        -0.4080   -0.0120    4.5980 ce        1 E29     -0.093500
     11 N34         0.8170   -0.5640    4.1770 na        1 E29      0.147900
     12 C35         1.8450   -0.9790    5.0410 cc        1 E29      0.225700
     13 N36         2.8420   -1.4800    4.2350 nd        1 E29     -0.439700
     14 N37         2.4140   -1.3560    3.0010 nd        1 E29     -0.150000
     15 N38         1.2280   -0.8230    2.9240 nc        1 E29     -0.284400
     16 CL         -4.9780    0.3320    5.5160 cl        1 E29     -0.181400
     17 H26        -1.0740    0.2200    0.3560 ha        1 E29      0.092500
     18 H27        -0.5720    1.9600    0.7490 ha        1 E29      0.092500
     19 H29        -3.2100    1.6710    3.6970 ha        1 E29      0.125000
     20 H31        -2.9550   -0.8830    5.5000 h4        1 E29      0.169000
     21 H32        -0.9570    0.2290    8.1980 ha        1 E29      0.141500
     22 H35         1.8130   -0.9020    6.1260 h5        1 E29      0.076800
     23 OXT         1.8550   -2.4010    0.1520 o         1 E29     -0.457500
@<TRIPOS>BOND
     1    1    2 2   
     2    1   23 2   
     3    3    4 2   
     4    3   17 1   
     5    3   18 1   
     6    4    5 2   
     7    5    6 1   
     8    5   10 1   
     9    6    7 2   
    10    6   19 1   
    11    7   16 1   
    12    7   20 1   
    13    8    9 3   
    14    8   21 1   
    15    9   10 1   
    16   10   11 2   
    17   11   12 1   
    18   11   15 1   
    19   12   13 2   
    20   12   22 1   
    21   13   14 1   
    22   14   15 2   
@<TRIPOS>SUBSTRUCTURE
     1 E29         1 TEMP              0 ****  ****    0 ROOT
