@<TRIPOS>MOLECULE
E2B
   62    66     1     0     0
SMALL
bcc


@<TRIPOS>ATOM
      1 N30        -0.0730    0.1920   -0.1650 n4        1 E2B     -0.764400
      2 C9          7.2810    3.3900    5.6330 c3        1 E2B     -0.049700
      3 C10         8.5760    4.2240    5.6260 c3        1 E2B     -0.004400
      4 C15         7.0540    2.8770    4.2300 c3        1 E2B     -0.057700
      5 C8          6.1390    4.2620    6.1200 c3        1 E2B     -0.071400
      6 C14         8.1970    1.9340    3.7940 c3        1 E2B     -0.089000
      7 C11         8.8390    4.7770    6.9920 ca        1 E2B     -0.109300
      8 C13         9.4670    2.7650    3.7260 c3        1 E2B     -0.066400
      9 C16         5.7860    2.1030    3.9000 c3        1 E2B     -0.074400
     10 C28         1.4190    0.4720   -0.0130 c         1 E2B      0.579700
     11 C25         1.2930   -0.2740    2.3940 ca        1 E2B     -0.104000
     12 C6          7.7740    5.0120    7.8820 ca        1 E2B     -0.040300
     13 C12         9.7550    3.4380    5.0590 c3        1 E2B     -0.073400
     14 C17         6.1130    1.3700    2.5880 c3        1 E2B     -0.056700
     15 C18         7.6590    1.4330    2.4300 c3        1 E2B      0.148100
     16 C20         8.4000    0.7470    4.7210 c3        1 E2B     -0.081100
     17 C24         2.0260    0.1230    1.2610 ca        1 E2B     -0.207600
     18 C1         10.1380    5.1220    7.3850 ca        1 E2B     -0.088000
     19 C26         1.9650   -0.5860    3.5680 ca        1 E2B     -0.116000
     20 C21         5.5890   -0.0550    2.5610 c3        1 E2B     -0.045100
     21 C23         3.4290    0.2050    1.3260 ca        1 E2B     -0.037000
     22 C27         3.3600   -0.5110    3.6310 ca        1 E2B     -0.049000
     23 C7          6.3610    4.6570    7.5630 c3        1 E2B     -0.037100
     24 C3          9.3260    5.9140    9.5080 ca        1 E2B      0.132100
     25 C22         4.1020   -0.1150    2.5120 ca        1 E2B     -0.055300
     26 C5          8.0170    5.5800    9.1360 ca        1 E2B     -0.161000
     27 C2         10.3940    5.6860    8.6310 ca        1 E2B     -0.211000
     28 O4          9.4880    6.4670   10.7570 oh        1 E2B     -0.494100
     29 O29         1.9200    0.9550   -1.0180 o         1 E2B     -0.419100
     30 O19         8.1430    0.1630    2.0410 oh        1 E2B     -0.602800
     31 HN30       -0.3700    0.4070   -1.1250 hn        1 E2B      0.466467
     32 HN3A       -0.6030    0.7730    0.4890 hn        1 E2B      0.466467
     33 H10         8.4040    5.1090    4.9420 hc        1 E2B      0.055700
     34 H15         7.0740    3.7750    3.5420 hc        1 E2B      0.051700
     35 H8          5.1700    3.7050    6.0270 hc        1 E2B      0.040200
     36 H8A         6.0610    5.1790    5.4780 hc        1 E2B      0.040200
     37 H13        10.3360    2.1120    3.4490 hc        1 E2B      0.043700
     38 H13A        9.3620    3.5460    2.9270 hc        1 E2B      0.043700
     39 H16         5.5350    1.3790    4.7140 hc        1 E2B      0.044700
     40 H16A        4.9150    2.7900    3.7700 hc        1 E2B      0.044700
     41 H25         0.1950   -0.3370    2.3870 ha        1 E2B      0.121000
     42 H12        10.0820    2.6710    5.8080 hc        1 E2B      0.050200
     43 H12A       10.6170    4.1400    4.9000 hc        1 E2B      0.050200
     44 H17         5.6600    1.9330    1.7280 hc        1 E2B      0.045700
     45 H18         7.9190    2.1800    1.6280 h1        1 E2B      0.042700
     46 H20         8.7210    1.0740    5.7380 hc        1 E2B      0.041033
     47 H20A        9.1920    0.0740    4.3080 hc        1 E2B      0.041033
     48 H20B        7.4560    0.1600    4.8160 hc        1 E2B      0.041033
     49 H1         10.9870    4.9550    6.7050 ha        1 E2B      0.134000
     50 H26         1.3950   -0.8950    4.4610 ha        1 E2B      0.166000
     51 H21         6.0070   -0.5770    1.6540 hc        1 E2B      0.083700
     52 H21A        5.9720   -0.6110    3.4580 hc        1 E2B      0.083700
     53 H23         4.0050    0.5210    0.4380 ha        1 E2B      0.174000
     54 H27         3.8810   -0.7630    4.5710 ha        1 E2B      0.170000
     55 H7          6.0590    3.8040    8.2320 hc        1 E2B      0.054200
     56 H7A         5.6940    5.5250    7.8170 hc        1 E2B      0.054200
     57 H5          7.1910    5.7690    9.8380 ha        1 E2B      0.151000
     58 H2         11.4200    5.9490    8.9220 ha        1 E2B      0.138000
     59 HO4        10.4300    6.6570   10.8800 ho        1 E2B      0.423000
     60 HO19        9.1070    0.2050    2.0990 ho        1 E2B      0.417000
     61 H303       -0.2620   -0.7930    0.0370 hn        1 E2B      0.466467
     62 H9          7.3970    2.5270    6.3450 hc        1 E2B      0.063700
@<TRIPOS>BOND
     1    1   10 1
     2    1   31 1
     3    1   32 1
     4    1   61 1
     5    2    3 1
     6    2    4 1
     7    2    5 1
     8    2   62 1
     9    3    7 1
    10    3   13 1
    11    3   33 1
    12    4    6 1
    13    4    9 1
    14    4   34 1
    15    5   23 1
    16    5   35 1
    17    5   36 1
    18    6    8 1
    19    6   15 1
    20    6   16 1
    21    7   12 ar
    22    7   18 ar
    23    8   13 1
    24    8   37 1
    25    8   38 1
    26    9   14 1
    27    9   39 1
    28    9   40 1
    29   10   17 1
    30   10   29 2
    31   11   17 ar
    32   11   19 ar
    33   11   41 1
    34   12   23 1
    35   12   26 ar
    36   13   42 1
    37   13   43 1
    38   14   15 1
    39   14   20 1
    40   14   44 1
    41   15   30 1
    42   15   45 1
    43   16   46 1
    44   16   47 1
    45   16   48 1
    46   17   21 ar
    47   18   27 ar
    48   18   49 1
    49   19   22 ar
    50   19   50 1
    51   20   25 1
    52   20   51 1
    53   20   52 1
    54   21   25 ar
    55   21   53 1
    56   22   25 ar
    57   22   54 1
    58   23   55 1
    59   23   56 1
    60   24   26 ar
    61   24   27 ar
    62   24   28 1
    63   26   57 1
    64   27   58 1
    65   28   59 1
    66   30   60 1
@<TRIPOS>SUBSTRUCTURE
     1 E2B         1 TEMP              0 ****  ****    0 ROOT
