@<TRIPOS>MOLECULE
E2I
   44    45     1     0     0
SMALL
bcc


@<TRIPOS>ATOM
      1 N1           0.0000     0.0000     0.0000 nb         1 E2I      -0.622000
      2 C2           1.3230     0.0000     0.0000 ca         1 E2I       0.458200
      3 C3           1.9990     0.0000     1.2090 ca         1 E2I      -0.322900
      4 C4           1.2610     0.0000     2.3820 ca         1 E2I       0.458200
      5 N5          -0.0600     0.0000     2.3130 nb         1 E2I      -0.622000
      6 C6          -0.6770    -0.0000     1.1400 ca         1 E2I       0.721300
      7 C13          3.5060    -0.0000     1.2500 c3         1 E2I       0.039900
      8 C15          4.0160     1.4430     1.2620 c3         1 E2I      -0.027400
      9 C17          5.5460     1.4430     1.3020 c3         1 E2I      -0.027400
     10 C19          6.0550     2.8850     1.3150 c3         1 E2I       0.007900
     11 S21         -2.4390    -0.0010     1.0940 ss         1 E2I      -0.311400
     12 C23         -2.7060    -0.0020    -0.6960 c3         1 E2I      -0.031300
     13 C25         -4.1860    -0.0010    -0.9830 c          1 E2I       0.608700
     14 O27         -4.9800    -0.0020    -0.0670 o          1 E2I      -0.479100
     15 C29         -4.6650    -0.0020    -2.3740 ca         1 E2I      -0.069600
     16 C31         -6.0370    -0.0030    -2.6440 ca         1 E2I      -0.064500
     17 C32         -6.4790    -0.0030    -3.9510 ca         1 E2I       0.001500
     18 C33         -5.5680    -0.0020    -4.9930 ca         1 E2I      -0.213500
     19 C34         -4.2090    -0.0020    -4.7340 ca         1 E2I       0.001500
     20 C35         -3.7510     0.0040    -3.4330 ca         1 E2I      -0.064500
     21 S42         -6.1430    -0.0030    -6.6590 sy         1 E2I       0.935200
     22 O44         -5.0920    -0.5470    -7.4460 o          1 E2I      -0.492800
     23 O46         -7.4550    -0.5480    -6.6300 o          1 E2I      -0.492800
     24 N48         -6.3030     1.5790    -7.1230 nz         1 E2I      -0.131500
     25 H2           1.8650    -0.1670    -0.9230 h4         1 E2I      -0.005900
     26 H4           1.7530    -0.1660     3.3330 h4         1 E2I      -0.005900
     27 H13          3.8910    -0.5110     0.3750 hc         1 E2I       0.025200
     28 H13A         3.8440    -0.5100     2.1440 hc         1 E2I       0.025200
     29 H15          3.6780     1.9530     0.3690 hc         1 E2I       0.017700
     30 H15A         3.6320     1.9540     2.1370 hc         1 E2I       0.017700
     31 H17          5.8840     0.9330     2.1960 hc         1 E2I       0.014700
     32 H17A         5.9300     0.9320     0.4280 hc         1 E2I       0.014700
     33 H19          7.1380     2.8850     1.3430 hc         1 E2I       0.003367
     34 H19A         5.7180     3.3950     0.4210 hc         1 E2I       0.003367
     35 H19B         5.6710     3.3960     2.1890 hc         1 E2I       0.003367
     36 H23         -2.2540     0.8820    -1.1290 h1         1 E2I       0.069200
     37 H23A        -2.2550    -0.8870    -1.1280 h1         1 E2I       0.069200
     38 H31         -6.7490     0.0750    -1.8310 ha         1 E2I       0.145000
     39 H32         -7.5420    -0.0090    -4.1620 ha         1 E2I       0.129500
     40 H34         -3.5020    -0.0110    -5.5550 ha         1 E2I       0.129500
     41 H35         -2.6900     0.0950    -3.2320 ha         1 E2I       0.145000
     42 HN48        -5.4160     2.0370    -7.0560 hn         1 E2I       0.313800
     43 HN4A        -6.6300     1.6180    -8.0680 hn         1 E2I       0.313800
     44 H483        -6.9610     2.0370    -6.5230 hn         1 E2I       0.313800
@<TRIPOS>BOND
     1     1     2 ar  
     2     1     6 ar  
     3     2     3 ar  
     4     2    25 1   
     5     3     4 ar  
     6     3     7 1   
     7     4     5 ar  
     8     4    26 1   
     9     5     6 ar  
    10     6    11 1   
    11     7     8 1   
    12     7    27 1   
    13     7    28 1   
    14     8     9 1   
    15     8    29 1   
    16     8    30 1   
    17     9    10 1   
    18     9    31 1   
    19     9    32 1   
    20    10    33 1   
    21    10    34 1   
    22    10    35 1   
    23    11    12 1   
    24    12    13 1   
    25    12    36 1   
    26    12    37 1   
    27    13    14 2   
    28    13    15 1   
    29    15    16 ar  
    30    15    20 ar  
    31    16    17 ar  
    32    16    38 1   
    33    17    18 ar  
    34    17    39 1   
    35    18    19 ar  
    36    18    21 1   
    37    19    20 ar  
    38    19    40 1   
    39    20    41 1   
    40    21    22 2   
    41    21    23 2   
    42    21    24 1   
    43    24    42 1   
    44    24    43 1   
    45    24    44 1   
@<TRIPOS>SUBSTRUCTURE
     1 E2I         1 TEMP              0 ****  ****    0 ROOT
