@<TRIPOS>MOLECULE
molecule
   44    45     1     0     0
SMALL
bcc


@<TRIPOS>ATOM
      1 N1           0.0000     0.0000     0.0000 nb         1 E2I      -0.739500
      2 C2           1.3230     0.0000     0.0000 ca         1 E2I       0.471200
      3 C3           1.9990     0.0000     1.2090 ca         1 E2I      -0.329900
      4 C4           1.2610     0.0000     2.3820 ca         1 E2I       0.471200
      5 N5          -0.0600     0.0000     2.3130 nb         1 E2I      -0.739500
      6 C6          -0.6770    -0.0000     1.1400 ca         1 E2I       0.758300
      7 C13          3.5060    -0.0000     1.2500 c3         1 E2I      -0.032100
      8 C15          4.0160     1.4430     1.2620 c3         1 E2I      -0.078400
      9 C17          5.5460     1.4430     1.3020 c3         1 E2I      -0.084400
     10 C19          6.0550     2.8850     1.3150 c3         1 E2I      -0.091100
     11 S21         -2.4390    -0.0010     1.0940 ss         1 E2I      -0.158400
     12 C23         -2.7060    -0.0020    -0.6960 c3         1 E2I      -0.131300
     13 C25         -4.1860    -0.0010    -0.9830 c          1 E2I       0.567700
     14 O27         -4.9800    -0.0020    -0.0670 o          1 E2I      -0.461100
     15 C29         -4.6650    -0.0020    -2.3740 ca         1 E2I      -0.067600
     16 C31         -6.0370    -0.0030    -2.6440 ca         1 E2I      -0.088000
     17 C32         -6.4790    -0.0030    -3.9510 ca         1 E2I      -0.039000
     18 C33         -5.5680    -0.0020    -4.9930 ca         1 E2I      -0.326500
     19 C34         -4.2090    -0.0020    -4.7340 ca         1 E2I      -0.039000
     20 C35         -3.7510     0.0040    -3.4330 ca         1 E2I      -0.088000
     21 S42         -6.1430    -0.0030    -6.6590 sy         1 E2I       1.225200
     22 O44         -5.0920    -0.5470    -7.4460 o          1 E2I      -0.513800
     23 O46         -7.4550    -0.5480    -6.6300 o          1 E2I      -0.513800
     24 N48         -6.3030     1.5790    -7.1230 nz         1 E2I      -0.807500
     25 H2           1.8650    -0.1670    -0.9230 h4         1 E2I       0.038100
     26 H4           1.7530    -0.1660     3.3330 h4         1 E2I       0.038100
     27 H13          3.8910    -0.5110     0.3750 hc         1 E2I       0.055700
     28 H13A         3.8440    -0.5100     2.1440 hc         1 E2I       0.055700
     29 H15          3.6780     1.9530     0.3690 hc         1 E2I       0.045700
     30 H15A         3.6320     1.9540     2.1370 hc         1 E2I       0.045700
     31 H17          5.8840     0.9330     2.1960 hc         1 E2I       0.043700
     32 H17A         5.9300     0.9320     0.4280 hc         1 E2I       0.043700
     33 H19          7.1380     2.8850     1.3430 hc         1 E2I       0.036700
     34 H19A         5.7180     3.3950     0.4210 hc         1 E2I       0.036700
     35 H19B         5.6710     3.3960     2.1890 hc         1 E2I       0.036700
     36 H23         -2.2540     0.8820    -1.1290 h1         1 E2I       0.101200
     37 H23A        -2.2550    -0.8870    -1.1280 h1         1 E2I       0.101200
     38 H31         -6.7490     0.0750    -1.8310 ha         1 E2I       0.180000
     39 H32         -7.5420    -0.0090    -4.1620 ha         1 E2I       0.161000
     40 H34         -3.5020    -0.0110    -5.5550 ha         1 E2I       0.161000
     41 H35         -2.6900     0.0950    -3.2320 ha         1 E2I       0.180000
     42 HN48        -5.4160     2.0370    -7.0560 hn         1 E2I       0.493133
     43 HN4A        -6.6300     1.6180    -8.0680 hn         1 E2I       0.493133
     44 H483        -6.9610     2.0370    -6.5230 hn         1 E2I       0.493133
@<TRIPOS>BOND
     1     6     1 ar
     2     1     2 ar
     3     3     2 ar
     4     2    25 1
     5     4     3 ar
     6     3     7 1
     7     5     4 ar
     8     4    26 1
     9     5     6 ar
    10    11     6 1
    11     8     7 1
    12     7    27 1
    13     7    28 1
    14     8     9 1
    15     8    29 1
    16     8    30 1
    17     9    10 1
    18     9    31 1
    19     9    32 1
    20    10    33 1
    21    10    34 1
    22    10    35 1
    23    11    12 1
    24    13    12 1
    25    12    36 1
    26    12    37 1
    27    14    13 2
    28    13    15 1
    29    15    16 ar
    30    15    20 ar
    31    16    17 ar
    32    16    38 1
    33    17    18 ar
    34    17    39 1
    35    19    18 ar
    36    18    21 1
    37    20    19 ar
    38    19    40 1
    39    20    41 1
    40    24    21 1
    41    23    21 2
    42    21    22 2
    43    24    42 1
    44    24    43 1
    45    44    24 1
@<TRIPOS>SUBSTRUCTURE
     1 E2I         1 TEMP              0 ****  ****    0 ROOT
