@<TRIPOS>MOLECULE
E2J
   59    63     1     0     0
SMALL
bcc


@<TRIPOS>ATOM
      1 C10          0.0000     0.0000     0.0000 cc         1 E2J       0.033600
      2 N11          1.3210     0.0000     0.0000 nd         1 E2J      -0.210600
      3 C12          2.0970     0.0020     3.6350 c3         1 E2J       0.045800
      4 C13          2.2460     1.4390     4.1370 c3         1 E2J       0.151800
      5 C15          3.3560     2.8050     5.8000 c3         1 E2J       0.153800
      6 C26          3.0160     1.5120    10.3920 ca         1 E2J      -0.044300
      7 C28          1.0760     0.4420    11.3150 ca         1 E2J      -0.132250
      8 C31          3.7890     1.0040    11.4350 ca         1 E2J      -0.069750
      9 C33          3.1160     0.5660     7.6920 c3         1 E2J       0.009800
     10 C34          2.2230     0.7610     6.4620 c3         1 E2J       0.153800
     11 C19          4.2150     3.6720     9.6920 ca         1 E2J      -0.044300
     12 C18          3.6430     2.3490     9.3420 ce         1 E2J      -0.043400
     13 C21          3.9190     5.9260    10.4680 ca         1 E2J      -0.132250
     14 C01          3.5200    -0.0000     1.1050 c3         1 E2J       0.051100
     15 C02          2.0130     0.0000     1.1320 cd         1 E2J       0.169400
     16 C03          1.3360     0.0020     2.3330 cc         1 E2J      -0.299400
     17 C04         -0.0590     0.0030     2.3320 c          1 E2J       0.495500
     18 O05         -0.6720     0.0030     3.3870 o          1 E2J      -0.675500
     19 N06         -0.7350     0.0020     1.1460 n          1 E2J       0.372800
     20 C07         -2.0970     0.0070     0.9710 cc         1 E2J      -0.208300
     21 C08         -2.5850     0.0110    -0.2570 cd         1 E2J       0.018900
     22 S09         -1.1730     0.0070    -1.3280 ss         1 E2J      -0.283800
     23 N14          2.9870     1.4390     5.4060 n3         1 E2J      -0.543600
     24 C16          4.3270     2.7480     6.9850 c3         1 E2J       0.009800
     25 C17          3.6930     1.9130     8.0770 c2         1 E2J      -0.096400
     26 C20          3.3830     4.6960    10.1430 ca         1 E2J      -0.069750
     27 C22          5.2820     6.1420    10.3470 ca         1 E2J       0.101900
     28 C23          6.1140     5.1240     9.9100 ca         1 E2J      -0.132250
     29 C24          5.5860     3.8940     9.5770 ca         1 E2J      -0.069750
     30 F25          5.8040     7.3470    10.6660 f          1 E2J      -0.129400
     31 C27          1.6540     1.2230    10.3360 ca         1 E2J      -0.069750
     32 C29          1.8470    -0.0550    12.3530 ca         1 E2J       0.101900
     33 C30          3.2030     0.2240    12.4090 ca         1 E2J      -0.132250
     34 F32          1.2750    -0.8200    13.3090 f          1 E2J      -0.129400
     35 H1           1.5570    -0.5830     4.3690 hc         1 E2J       0.036700
     36 H2           3.0780    -0.4300     3.4800 hc         1 E2J       0.036700
     37 H3           2.7870     2.0250     3.4030 h1         1 E2J       0.014200
     38 H4           1.2640     1.8720     4.2920 h1         1 E2J       0.014200
     39 H5           3.8360     3.3030     4.9660 h1         1 E2J       0.014200
     40 H6           2.4660     3.3500     6.0900 h1         1 E2J       0.014200
     41 H7           0.0160     0.2190    11.2730 ha         1 E2J       0.119500
     42 H8           4.8490     1.2210    11.4800 ha         1 E2J       0.113750
     43 H9           3.9200    -0.1190     7.4520 hc         1 E2J       0.033950
     44 H10          2.5260     0.1750     8.5120 hc         1 E2J       0.033950
     45 H11          1.3660     1.3670     6.7320 h1         1 E2J       0.014200
     46 H12          1.8900    -0.2050     6.1020 h1         1 E2J       0.014200
     47 H13          3.2730     6.7230    10.8140 ha         1 E2J       0.119500
     48 H14          3.8630    -0.0550     0.0790 hc         1 E2J       0.024033
     49 H15          3.8910    -0.8560     1.6550 hc         1 E2J       0.024033
     50 H16          3.8900     0.9100     1.5610 hc         1 E2J       0.024033
     51 H18         -2.7520    -0.1760     1.8140 h4         1 E2J       0.168000
     52 H19         -3.4450     0.6260    -0.4970 h4         1 E2J       0.175000
     53 H21          4.5100     3.7500     7.3540 hc         1 E2J       0.033950
     54 H22          5.2580     2.2920     6.6720 hc         1 E2J       0.033950
     55 H23          2.3170     4.5270    10.2380 ha         1 E2J       0.113750
     56 H24          7.1800     5.2980     9.8180 ha         1 E2J       0.119500
     57 H25          6.2370     3.0980     9.2360 ha         1 E2J       0.113750
     58 H26          1.0490     1.6130     9.5260 ha         1 E2J       0.113750
     59 H27          3.8030    -0.1690    13.2210 ha         1 E2J       0.119500
@<TRIPOS>BOND
     1     1     2 2   
     2     1    19 1   
     3     1    22 1   
     4     2    15 1   
     5     3     4 1   
     6     3    16 1   
     7     3    35 1   
     8     3    36 1   
     9     4    23 1   
    10     4    37 1   
    11     4    38 1   
    12     5    23 1   
    13     5    24 1   
    14     5    39 1   
    15     5    40 1   
    16     6     8 ar  
    17     6    12 1   
    18     6    31 ar  
    19     7    31 ar  
    20     7    32 ar  
    21     7    41 1   
    22     8    33 ar  
    23     8    42 1   
    24     9    10 1   
    25     9    25 1   
    26     9    43 1   
    27     9    44 1   
    28    10    23 1   
    29    10    45 1   
    30    10    46 1   
    31    11    12 1   
    32    11    26 ar  
    33    11    29 ar  
    34    12    25 2   
    35    13    26 ar  
    36    13    27 ar  
    37    13    47 1   
    38    14    15 1   
    39    14    48 1   
    40    14    49 1   
    41    14    50 1   
    42    15    16 2   
    43    16    17 1   
    44    17    18 2   
    45    17    19 1   
    46    19    20 1   
    47    20    21 2   
    48    20    51 1   
    49    21    22 1   
    50    21    52 1   
    51    24    25 1   
    52    24    53 1   
    53    24    54 1   
    54    26    55 1   
    55    27    28 ar  
    56    27    30 1   
    57    28    29 ar  
    58    28    56 1   
    59    29    57 1   
    60    31    58 1   
    61    32    33 ar  
    62    32    34 1   
    63    33    59 1   
@<TRIPOS>SUBSTRUCTURE
     1 E2J         1 TEMP              0 ****  ****    0 ROOT
