@<TRIPOS>MOLECULE
molecule
   59    63     1     0     0
SMALL
bcc


@<TRIPOS>ATOM
      1 C10          0.0000     0.0000     0.0000 cc         1 E2J       0.203600
      2 N11          1.3210     0.0000     0.0000 nc         1 E2J      -0.348600
      3 C12          2.0970     0.0020     3.6350 c3         1 E2J      -0.007200
      4 C13          2.2460     1.4390     4.1370 c3         1 E2J       0.165800
      5 C15          3.3560     2.8050     5.8000 c3         1 E2J       0.166800
      6 C26          3.0160     1.5120    10.3920 ca         1 E2J      -0.056300
      7 C28          1.0760     0.4420    11.3150 ca         1 E2J      -0.168500
      8 C31          3.7890     1.0040    11.4350 ca         1 E2J      -0.093000
      9 C33          3.1160     0.5660     7.6920 c3         1 E2J      -0.045200
     10 C34          2.2230     0.7610     6.4620 c3         1 E2J       0.166800
     11 C19          4.2150     3.6720     9.6920 ca         1 E2J      -0.056300
     12 C18          3.6430     2.3490     9.3420 ce         1 E2J      -0.050400
     13 C21          3.9190     5.9260    10.4680 ca         1 E2J      -0.168500
     14 C01          3.5200    -0.0000     1.1050 c3         1 E2J      -0.043900
     15 C02          2.0130     0.0000     1.1320 cc         1 E2J       0.222400
     16 C03          1.3360     0.0020     2.3330 cd         1 E2J      -0.299400
     17 C04         -0.0590     0.0030     2.3320 c          1 E2J       0.590500
     18 O05         -0.6720     0.0030     3.3870 o          1 E2J      -0.634500
     19 N06         -0.7350     0.0020     1.1460 n          1 E2J      -0.092200
     20 C07         -2.0970     0.0070     0.9710 cc         1 E2J      -0.068300
     21 C08         -2.5850     0.0110    -0.2570 cd         1 E2J      -0.089100
     22 S09         -1.1730     0.0070    -1.3280 ss         1 E2J      -0.145800
     23 N14          2.9870     1.4390     5.4060 n3         1 E2J      -0.737600
     24 C16          4.3270     2.7480     6.9850 c3         1 E2J      -0.045200
     25 C17          3.6930     1.9130     8.0770 c2         1 E2J      -0.081400
     26 C20          3.3830     4.6960    10.1430 ca         1 E2J      -0.093000
     27 C22          5.2820     6.1420    10.3470 ca         1 E2J       0.131400
     28 C23          6.1140     5.1240     9.9100 ca         1 E2J      -0.168500
     29 C24          5.5860     3.8940     9.5770 ca         1 E2J      -0.093000
     30 F25          5.8040     7.3470    10.6660 f          1 E2J      -0.141900
     31 C27          1.6540     1.2230    10.3360 ca         1 E2J      -0.093000
     32 C29          1.8470    -0.0550    12.3530 ca         1 E2J       0.131400
     33 C30          3.2030     0.2240    12.4090 ca         1 E2J      -0.168500
     34 F32          1.2750    -0.8200    13.3090 f          1 E2J      -0.141900
     35 H1           1.5570    -0.5830     4.3690 hc         1 E2J       0.063200
     36 H2           3.0780    -0.4300     3.4800 hc         1 E2J       0.063200
     37 H3           1.2640     1.8720     4.2920 h1         1 E2J       0.038700
     38 H4           2.7870     2.0250     3.4030 h1         1 E2J       0.038700
     39 H5           3.8360     3.3030     4.9660 h1         1 E2J       0.038950
     40 H6           2.4660     3.3500     6.0900 h1         1 E2J       0.038950
     41 H7           0.0160     0.2190    11.2730 ha         1 E2J       0.146000
     42 H8           4.8490     1.2210    11.4800 ha         1 E2J       0.142000
     43 H9           2.5260     0.1750     8.5120 hc         1 E2J       0.062950
     44 H10          3.9200    -0.1190     7.4520 hc         1 E2J       0.062950
     45 H11          1.3660     1.3670     6.7320 h1         1 E2J       0.038950
     46 H12          1.8900    -0.2050     6.1020 h1         1 E2J       0.038950
     47 H13          3.2730     6.7230    10.8140 ha         1 E2J       0.146000
     48 H14          3.8900     0.9100     1.5610 hc         1 E2J       0.061700
     49 H15          3.8630    -0.0550     0.0790 hc         1 E2J       0.061700
     50 H16          3.8910    -0.8560     1.6550 hc         1 E2J       0.061700
     51 H18         -2.7520    -0.1760     1.8140 h4         1 E2J       0.201000
     52 H19         -3.4450     0.6260    -0.4970 h4         1 E2J       0.205000
     53 H21          5.2580     2.2920     6.6720 hc         1 E2J       0.062950
     54 H22          4.5100     3.7500     7.3540 hc         1 E2J       0.062950
     55 H23          2.3170     4.5270    10.2380 ha         1 E2J       0.142000
     56 H24          7.1800     5.2980     9.8180 ha         1 E2J       0.146000
     57 H25          6.2370     3.0980     9.2360 ha         1 E2J       0.142000
     58 H26          1.0490     1.6130     9.5260 ha         1 E2J       0.142000
     59 H27          3.8030    -0.1690    13.2210 ha         1 E2J       0.146000
@<TRIPOS>BOND
     1    34    32 1
     2    32     7 ar
     3    32    33 ar
     4     7    31 ar
     5    33     8 ar
     6    31     6 ar
     7     8     6 ar
     8     6    12 1
     9    12    11 1
    10    12    25 2
    11    24    25 1
    12    24     5 1
    13    29    11 ar
    14    29    28 ar
    15    11    26 ar
    16    25     9 1
    17    28    27 ar
    18     5    23 1
    19    26    13 ar
    20    27    13 ar
    21    27    30 1
    22     9    10 1
    23    23    10 1
    24    23     4 1
    25     4     3 1
    26    14    15 1
    27     3    16 1
    28    15    16 2
    29    15     2 1
    30    16    17 1
    31     2     1 2
    32    17    18 2
    33    17    19 1
    34     1    19 1
    35     1    22 1
    36    19    20 1
    37    20    21 2
    38    22    21 1
    39     3    35 1
    40     3    36 1
    41     4    37 1
    42     4    38 1
    43     5    39 1
    44     5    40 1
    45     7    41 1
    46     8    42 1
    47     9    43 1
    48     9    44 1
    49    10    45 1
    50    10    46 1
    51    13    47 1
    52    14    48 1
    53    14    49 1
    54    14    50 1
    55    20    51 1
    56    21    52 1
    57    24    53 1
    58    24    54 1
    59    26    55 1
    60    28    56 1
    61    29    57 1
    62    31    58 1
    63    33    59 1
@<TRIPOS>SUBSTRUCTURE
     1 E2J         1 TEMP              0 ****  ****    0 ROOT
