@<TRIPOS>MOLECULE
E2M
   70    75     1     0     0
SMALL
bcc


@<TRIPOS>ATOM
      1 O1           0.0000     0.0000     0.0000 os         1 E2M      -0.168000
      2 C2          -0.0300     2.0700     4.0420 c2         1 E2M      -0.100000
      3 C3           0.6840     1.6740     2.9130 c2         1 E2M      -0.138000
      4 C4           2.0590     0.0000     1.2060 ca         1 E2M      -0.295000
      5 C5           1.3600     0.0000     0.0000 ca         1 E2M       0.172000
      6 C6          -0.6490     0.0000    -1.2730 c3         1 E2M       0.020000
      7 F6          -1.6880     0.6180     4.9230 f          1 E2M      -0.127667
      8 F1           0.5030    -0.0250     5.0220 f          1 E2M      -0.127667
      9 F2          -0.2560     1.6580     6.3680 f          1 E2M      -0.127667
     10 C17          3.4470    -0.0010     1.1990 ca         1 E2M       0.000000
     11 C16          4.1310    -0.0010    -0.0010 ca         1 E2M      -0.179000
     12 C15          3.4370    -0.0010    -1.1970 ca         1 E2M      -0.015000
     13 C14          2.0540    -0.0010    -1.1980 ca         1 E2M      -0.223000
     14 C7          -2.1660    -0.0010    -1.0720 c3         1 E2M      -0.083000
     15 C12         -2.8600     0.1250    -2.4300 c3         1 E2M      -0.109000
     16 C11         -2.4630    -1.0560    -3.3160 c3         1 E2M      -0.095500
     17 C10         -2.8880    -2.3630    -2.6460 c3         1 E2M      -0.143000
     18 C13         -2.4970    -3.5280    -3.5190 c2         1 E2M       0.402000
     19 O3          -2.7730    -4.7820    -3.1290 o          1 E2M      -0.633000
     20 O2          -1.9360    -3.3310    -4.5710 o          1 E2M      -0.633000
     21 C9          -2.1940    -2.4890    -1.2880 c3         1 E2M      -0.095500
     22 C8          -2.5920    -1.3080    -0.4010 c3         1 E2M      -0.109000
     23 C18          1.0040     2.6020     1.9250 c2         1 E2M      -0.068000
     24 C19          0.6190     3.9060     2.0590 c2         1 E2M      -0.109000
     25 C20         -0.0980     4.3090     3.1930 c3         1 E2M       0.034000
     26 C28         -0.4230     3.3700     4.1820 c2         1 E2M      -0.201000
     27 C29         -1.1950     3.7990     5.4030 c3         1 E2M       0.433000
     28 F5          -0.3020     4.1870     6.4080 f          1 E2M      -0.132667
     29 F4          -2.0260     4.8750     5.0760 f          1 E2M      -0.132667
     30 F3          -1.9740     2.7300     5.8610 f          1 E2M      -0.132667
     31 C21         -0.5130     5.7090     3.3410 c2         1 E2M       0.034000
     32 C22         -0.5190     6.5300     2.2680 c2         1 E2M      -0.160000
     33 C23         -0.9320     7.9240     2.4170 c3         1 E2M       0.364000
     34 O5          -1.1860     8.3700     3.5220 o          1 E2M      -0.433000
     35 N           -1.0330     8.7160     1.3310 n3         1 E2M      -0.045000
     36 C27         -1.3800    10.1400     1.4620 c3         1 E2M      -0.097500
     37 C26         -2.5330    10.4480     0.5000 c3         1 E2M       0.045500
     38 O4          -2.1840     9.9970    -0.8110 os         1 E2M      -0.262000
     39 C25         -1.9800     8.5860    -0.9100 c3         1 E2M       0.045500
     40 C24         -0.7930     8.1840    -0.0200 c3         1 E2M      -0.097500
     41 H6          -0.3590     0.8850    -1.8260 h1         1 E2M       0.063000
     42 H6A         -0.3580    -0.8840    -1.8270 h1         1 E2M       0.063000
     43 H17          3.9940    -0.0010     2.1340 ha         1 E2M       0.114000
     44 H16          5.2140    -0.0010    -0.0050 ha         1 E2M       0.107000
     45 H15          3.9780    -0.0010    -2.1350 ha         1 E2M       0.101000
     46 H14          1.5130    -0.0010    -2.1370 ha         1 E2M       0.141000
     47 H7          -2.4510     0.8350    -0.4440 hc         1 E2M       0.049000
     48 H12         -3.9340     0.1230    -2.2860 hc         1 E2M       0.046750
     49 H12A        -2.5560     1.0500    -2.9050 hc         1 E2M       0.046750
     50 H11         -2.9570    -0.9670    -4.2760 hc         1 E2M       0.063500
     51 H11A        -1.3890    -1.0560    -3.4560 hc         1 E2M       0.063500
     52 H10         -3.9620    -2.3590    -2.5010 hc         1 E2M       0.062000
     53 H9          -1.1200    -2.4860    -1.4310 hc         1 E2M       0.063500
     54 H9A         -2.4970    -3.4140    -0.8130 hc         1 E2M       0.063500
     55 H8          -3.6660    -1.3080    -0.2630 hc         1 E2M       0.046750
     56 H8A         -2.0990    -1.3970     0.5600 hc         1 E2M       0.046750
     57 H18          1.5590     2.2900     1.0480 ha         1 E2M       0.137000
     58 H19          0.8700     4.6280     1.2920 ha         1 E2M       0.128000
     59 H21         -1.1380     4.9260     2.9290 DU         1 E2M       0.086000
     60 H22         -1.5490     6.8580     2.3410 DU         1 E2M       0.034000
     61 H27         -0.5210    10.7490     1.2060 h1         1 E2M       0.078500
     62 H27A        -1.6900    10.3470     2.4790 h1         1 E2M       0.078500
     63 H26         -3.4270     9.9350     0.8330 h1         1 E2M       0.055250
     64 H26A        -2.7090    11.5170     0.4790 h1         1 E2M       0.055250
     65 H25         -1.7640     8.3240    -1.9390 h1         1 E2M       0.055250
     66 H25A        -2.8720     8.0680    -0.5790 h1         1 E2M       0.055250
     67 H24          0.1210     8.6040    -0.4200 h1         1 E2M       0.078500
     68 H24A        -0.7190     7.1040     0.0220 h1         1 E2M       0.078500
     69 S            1.1830    -0.0060     2.7350 ss         1 E2M       0.232000
     70 C1          -0.3730     1.0620     5.1080 c3         1 E2M       0.430000
@<TRIPOS>BOND
     1     1     5 1   
     2     1     6 1   
     3     2     3 1   
     4     2    26 1   
     5     2    70 1   
     6     3    23 1   
     7     3    69 1   
     8     4     5 1   
     9     4    10 1   
    10     4    69 1   
    11     5    13 1   
    12     6    14 1   
    13     6    41 1   
    14     6    42 1   
    15     7    70 1   
    16     8    70 1   
    17     9    70 1   
    18    10    11 1   
    19    10    43 1   
    20    11    12 1   
    21    11    44 1   
    22    12    13 1   
    23    12    45 1   
    24    13    46 1   
    25    14    15 1   
    26    14    22 1   
    27    14    47 1   
    28    15    16 1   
    29    15    48 1   
    30    15    49 1   
    31    16    17 1   
    32    16    50 1   
    33    16    51 1   
    34    17    18 1   
    35    17    21 1   
    36    17    52 1   
    37    18    19 1   
    38    18    20 1   
    39    21    22 1   
    40    21    53 1   
    41    21    54 1   
    42    22    55 1   
    43    22    56 1   
    44    23    24 1   
    45    23    57 1   
    46    24    25 1   
    47    24    58 1   
    48    25    26 1   
    49    25    31 1   
    50    25    59 1   
    51    26    27 1   
    52    27    28 1   
    53    27    29 1   
    54    27    30 1   
    55    31    32 1   
    56    31    59 1   
    57    32    33 1   
    58    32    60 1   
    59    33    34 1   
    60    33    35 1   
    61    33    60 1   
    62    35    36 1   
    63    35    40 1   
    64    36    37 1   
    65    36    61 1   
    66    36    62 1   
    67    37    38 1   
    68    37    63 1   
    69    37    64 1   
    70    38    39 1   
    71    39    40 1   
    72    39    65 1   
    73    39    66 1   
    74    40    67 1   
    75    40    68 1   
@<TRIPOS>SUBSTRUCTURE
     1 E2M         1 TEMP              0 ****  ****    0 ROOT
