@<TRIPOS>MOLECULE
molecule
   70    73     1     0     0
SMALL
bcc


@<TRIPOS>ATOM
      1 O1           0.0000     0.0000     0.0000 os         1 E2M      -0.314900
      2 C2          -0.0300     2.0700     4.0420 ca         1 E2M      -0.147300
      3 C3           0.6840     1.6740     2.9130 ca         1 E2M       0.068900
      4 C4           2.0590     0.0000     1.2060 ca         1 E2M      -0.115100
      5 C5           1.3600     0.0000     0.0000 ca         1 E2M       0.200100
      6 C6          -0.6490     0.0000    -1.2730 c3         1 E2M       0.127400
      7 F6          -1.6880     0.6180     4.9230 f          1 E2M      -0.208633
      8 F1           0.5030    -0.0250     5.0220 f          1 E2M      -0.208633
      9 F2          -0.2560     1.6580     6.3680 f          1 E2M      -0.208633
     10 C17          3.4470    -0.0010     1.1990 ca         1 E2M      -0.040000
     11 C16          4.1310    -0.0010    -0.0010 ca         1 E2M      -0.196000
     12 C15          3.4370    -0.0010    -1.1970 ca         1 E2M      -0.056000
     13 C14          2.0540    -0.0010    -1.1980 ca         1 E2M      -0.230000
     14 C7          -2.1660    -0.0010    -1.0720 c3         1 E2M      -0.060700
     15 C12         -2.8600     0.1250    -2.4300 c3         1 E2M      -0.082400
     16 C11         -2.4630    -1.0560    -3.3160 c3         1 E2M      -0.061400
     17 C10         -2.8880    -2.3630    -2.6460 c3         1 E2M      -0.171700
     18 C13         -2.4970    -3.5280    -3.5190 c          1 E2M       0.894600
     19 O3          -2.7730    -4.7820    -3.1290 o          1 E2M      -0.849800
     20 O2          -1.9360    -3.3310    -4.5710 o          1 E2M      -0.849800
     21 C9          -2.1940    -2.4890    -1.2880 c3         1 E2M      -0.061400
     22 C8          -2.5920    -1.3080    -0.4010 c3         1 E2M      -0.082400
     23 C18          1.0040     2.6020     1.9250 ca         1 E2M      -0.120000
     24 C19          0.6190     3.9060     2.0590 ca         1 E2M      -0.077000
     25 C20         -0.0980     4.3090     3.1930 ca         1 E2M      -0.064800
     26 C28         -0.4230     3.3700     4.1820 ca         1 E2M      -0.099300
     27 C29         -1.1950     3.7990     5.4030 c3         1 E2M       0.670200
     28 F5          -0.3020     4.1870     6.4080 f          1 E2M      -0.214300
     29 F4          -2.0260     4.8750     5.0760 f          1 E2M      -0.214300
     30 F3          -1.9740     2.7300     5.8610 f          1 E2M      -0.214300
     31 C21         -0.5130     5.7090     3.3410 ce         1 E2M      -0.032200
     32 C22         -0.5190     6.5300     2.2680 cf         1 E2M      -0.254200
     33 C23         -0.9320     7.9240     2.4170 c          1 E2M       0.674300
     34 O5          -1.1860     8.3700     3.5220 o          1 E2M      -0.617100
     35 N           -1.0330     8.7160     1.3310 n          1 E2M      -0.491800
     36 C27         -1.3800    10.1400     1.4620 c3         1 E2M       0.068500
     37 C26         -2.5330    10.4480     0.5000 c3         1 E2M       0.119900
     38 O4          -2.1840     9.9970    -0.8110 os         1 E2M      -0.422600
     39 C25         -1.9800     8.5860    -0.9100 c3         1 E2M       0.119900
     40 C24         -0.7930     8.1840    -0.0200 c3         1 E2M       0.068500
     41 H6          -0.3580    -0.8840    -1.8270 h1         1 E2M       0.049700
     42 H6A         -0.3590     0.8850    -1.8260 h1         1 E2M       0.049700
     43 H17          3.9940    -0.0010     2.1340 ha         1 E2M       0.140000
     44 H16          5.2140    -0.0010    -0.0050 ha         1 E2M       0.129000
     45 H15          3.9780    -0.0010    -2.1350 ha         1 E2M       0.133000
     46 H14          1.5130    -0.0010    -2.1370 ha         1 E2M       0.156000
     47 H7          -2.4510     0.8350    -0.4440 hc         1 E2M       0.036700
     48 H12         -3.9340     0.1230    -2.2860 hc         1 E2M       0.033450
     49 H12A        -2.5560     1.0500    -2.9050 hc         1 E2M       0.033450
     50 H11         -2.9570    -0.9670    -4.2760 hc         1 E2M       0.047200
     51 H11A        -1.3890    -1.0560    -3.4560 hc         1 E2M       0.047200
     52 H10         -3.9620    -2.3590    -2.5010 hc         1 E2M       0.042700
     53 H9          -1.1200    -2.4860    -1.4310 hc         1 E2M       0.047200
     54 H9A         -2.4970    -3.4140    -0.8130 hc         1 E2M       0.047200
     55 H8          -3.6660    -1.3080    -0.2630 hc         1 E2M       0.033450
     56 H8A         -2.0990    -1.3970     0.5600 hc         1 E2M       0.033450
     57 H18          1.5590     2.2900     1.0480 ha         1 E2M       0.160000
     58 H19          0.8700     4.6280     1.2920 ha         1 E2M       0.142000
     59 H21         -0.8150     6.0850     4.3120 ha         1 E2M       0.181000
     60 H22         -0.2170     6.1550     1.2980 ha         1 E2M       0.131000
     61 H27         -0.5210    10.7490     1.2060 h1         1 E2M       0.063450
     62 H27A        -1.6900    10.3470     2.4790 h1         1 E2M       0.063450
     63 H26         -3.4270     9.9350     0.8330 h1         1 E2M       0.055950
     64 H26A        -2.7090    11.5170     0.4790 h1         1 E2M       0.055950
     65 H25         -1.7640     8.3240    -1.9390 h1         1 E2M       0.055950
     66 H25A        -2.8720     8.0680    -0.5790 h1         1 E2M       0.055950
     67 H24         -0.7190     7.1040     0.0220 h1         1 E2M       0.063450
     68 H24A         0.1210     8.6040    -0.4200 h1         1 E2M       0.063450
     69 S            1.1830    -0.0060     2.7350 ss         1 E2M      -0.064800
     70 C1          -0.3730     1.0620     5.1080 c3         1 E2M       0.672200
@<TRIPOS>BOND
     1     6     1 1
     2     1     5 1
     3     9    70 1
     4     2    70 1
     5     7    70 1
     6    70     8 1
     7    26     2 ar
     8     2     3 ar
     9    23     3 ar
    10     3    69 1
    11     5     4 ar
    12    69     4 1
    13     4    10 ar
    14     5    13 ar
    15    14     6 1
    16     6    41 1
    17     6    42 1
    18    10    11 ar
    19    10    43 1
    20    12    11 ar
    21    11    44 1
    22    13    12 ar
    23    12    45 1
    24    13    46 1
    25    15    14 1
    26    22    14 1
    27    14    47 1
    28    16    15 1
    29    15    48 1
    30    15    49 1
    31    17    16 1
    32    16    50 1
    33    16    51 1
    34    18    17 1
    35    17    21 1
    36    17    52 1
    37    20    18 1
    38    18    19 1
    39    21    22 1
    40    21    53 1
    41    21    54 1
    42    22    55 1
    43    22    56 1
    44    24    23 ar
    45    23    57 1
    46    25    24 ar
    47    24    58 1
    48    31    25 1
    49    25    26 ar
    50    27    26 1
    51    28    27 1
    52    30    27 1
    53    27    29 1
    54    32    31 2
    55    31    59 1
    56    33    32 1
    57    32    60 1
    58    34    33 2
    59    35    33 1
    60    36    35 1
    61    35    40 1
    62    36    37 1
    63    36    61 1
    64    36    62 1
    65    37    38 1
    66    37    63 1
    67    37    64 1
    68    38    39 1
    69    40    39 1
    70    39    65 1
    71    39    66 1
    72    40    67 1
    73    40    68 1
@<TRIPOS>SUBSTRUCTURE
     1 E2M         1 TEMP              0 ****  ****    0 ROOT
