@<TRIPOS>MOLECULE
molecule
   32    33     1     0     0
SMALL
bcc


@<TRIPOS>ATOM
      1 C1           0.0000     0.0000     0.0000 c3         1 E2N       0.073600
      2 C2           3.3360     0.0000     1.3880 cc         1 E2N       0.574600
      3 C3           3.6210     0.0000     0.0000 cd         1 E2N      -0.230900
      4 C4           4.9560    -0.0000    -0.6190 c          1 E2N       0.906200
      5 N1           1.4410    -0.0000     0.2660 na         1 E2N       0.058400
      6 C5           2.4080    -0.0010    -0.6630 cc         1 E2N      -0.097600
      7 C6           2.2090    -0.0010    -2.1570 c3         1 E2N       0.220700
      8 C7           1.9680     1.5250    -3.9640 ca         1 E2N       0.167100
      9 C8           1.8510     0.4260    -4.8020 ca         1 E2N      -0.200000
     10 C9           1.6630     0.6100    -6.1590 ca         1 E2N      -0.098000
     11 N2           2.0370    -0.0000     1.5320 nd         1 E2N      -0.628800
     12 C10          1.5940     1.8880    -6.6810 ca         1 E2N      -0.144000
     13 C11          1.7120     2.9850    -5.8480 ca         1 E2N      -0.149300
     14 C12          1.6370     4.3770    -6.4220 c3         1 E2N       0.673200
     15 O2           5.5670     1.1670    -0.9030 o          1 E2N      -0.827800
     16 C13          1.8970     2.8070    -4.4910 ca         1 E2N      -0.113000
     17 O3           5.5070    -1.0530    -0.8740 o          1 E2N      -0.827800
     18 O4           2.1460     1.3470    -2.6290 os         1 E2N      -0.298900
     19 F1           2.8290     5.0570    -6.1510 f          1 E2N      -0.228300
     20 F2           1.4470     4.3020    -7.8060 f          1 E2N      -0.228300
     21 F3           0.5660     5.0630    -5.8390 f          1 E2N      -0.228300
     22 H1          -0.2720     0.9130    -0.5170 h1         1 E2N       0.039367
     23 H2          -0.2530    -0.8530    -0.6170 h1         1 E2N       0.039367
     24 H3          -0.5400    -0.0590     0.9370 h1         1 E2N       0.039367
     25 H4           3.0370    -0.5120    -2.6320 h1         1 E2N       0.049200
     26 H5           1.2840    -0.5110    -2.3980 h1         1 E2N       0.049200
     27 H6           1.9050    -0.5760    -4.3930 ha         1 E2N       0.145000
     28 H7           1.5710    -0.2480    -6.8130 ha         1 E2N       0.129000
     29 H9           1.4470     2.0300    -7.7450 ha         1 E2N       0.137000
     30 H11          1.9890     3.6670    -3.8390 ha         1 E2N       0.160000
     31 H12          3.8130    -0.1050     3.2190 ho         1 E2N       0.404000
     32 O1           4.2520     0.0060     2.3920 oh         1 E2N      -0.565300
@<TRIPOS>BOND
     1    10    12 ar
     2    10     9 ar
     3    12    13 ar
     4     9     8 ar
     5    19    14 1
     6    13    14 1
     7    13    16 ar
     8    17     4 1
     9     8    16 ar
    10     8    18 1
    11     7    18 1
    12     7     6 1
    13    14    20 1
    14    14    21 1
    15     4    15 1
    16     4     3 1
    17     6     3 2
    18     6     5 1
    19     3     2 1
    20     5     1 1
    21     5    11 1
    22     2    11 2
    23     2    32 1
    24     1    22 1
    25     1    23 1
    26     1    24 1
    27     7    25 1
    28     7    26 1
    29     9    27 1
    30    10    28 1
    31    12    29 1
    32    16    30 1
    33    32    31 1
@<TRIPOS>SUBSTRUCTURE
     1 E2N         1 TEMP              0 ****  ****    0 ROOT
