@<TRIPOS>MOLECULE
E2P
   53    53     1     0     0
SMALL
bcc


@<TRIPOS>ATOM
      1 C1          1.7160   -1.7280   -0.2820 c3        1 E2P     -0.088100
      2 C2          3.1280   -2.0540    0.1300 c3        1 E2P     -0.085400
      3 C3          3.5500   -1.2660    1.3530 c3        1 E2P     -0.068400
      4 C4          4.9530   -1.6380    1.7800 c3        1 E2P     -0.105400
      5 C5          5.3960   -0.8240    2.9770 c3        1 E2P     -0.058400
      6 C6          6.6570   -1.4290    3.6020 c3        1 E2P      0.153300
      7 O6          7.4560   -0.3330    4.0400 oh        1 E2P     -0.627800
      8 C7          6.3010   -2.4120    4.6670 c2        1 E2P     -0.119200
      9 C8          6.5730   -2.4040    5.9740 ce        1 E2P     -0.207000
     10 C9          7.2570   -1.4030    6.7580 ce        1 E2P      0.022800
     11 C10         6.6870   -0.0220    6.9500 c3        1 E2P     -0.070200
     12 C11         7.6600    0.6860    7.8960 c3        1 E2P     -0.192400
     13 C12         8.7360   -0.3390    8.2140 c         1 E2P      0.573300
     14 O12         9.6880   -0.1480    8.9740 o         1 E2P     -0.557100
     15 C13         8.4080   -1.5740    7.4650 cf        1 E2P     -0.236400
     16 C14         9.2510   -2.7870    7.5340 c3        1 E2P      0.020000
     17 C15        10.3520   -2.7570    6.5370 c2        1 E2P     -0.185200
     18 C16        10.5590   -3.6230    5.5410 c2        1 E2P     -0.149200
     19 C17         9.7390   -4.8030    5.1790 c3        1 E2P     -0.053200
     20 C18         9.0210   -4.5870    3.8570 c3        1 E2P     -0.062400
     21 C19         8.1900   -5.7840    3.4630 c3        1 E2P     -0.193400
     22 C20         7.1950   -5.4310    2.3460 c         1 E2P      0.913600
     23 O21         6.4740   -4.3940    2.4840 o         1 E2P     -0.859800
     24 O20         7.1200   -6.1970    1.3460 o         1 E2P     -0.859800
     25 H13         1.0000   -1.9740    0.5380 hc        1 E2P      0.022033
     26 H11         1.6140   -0.6420   -0.5210 hc        1 E2P      0.022033
     27 H12         1.4300   -2.3160   -1.1870 hc        1 E2P      0.022033
     28 H21         3.8300   -1.8310   -0.7170 hc        1 E2P      0.050700
     29 H22         3.2190   -3.1520    0.3490 hc        1 E2P      0.050700
     30 H31         2.8340   -1.4680    2.1920 hc        1 E2P      0.022200
     31 H32         3.4970   -0.1680    1.1300 hc        1 E2P      0.022200
     32 H41         5.6640   -1.4670    0.9300 hc        1 E2P      0.081200
     33 H42         5.0100   -2.7390    2.0220 hc        1 E2P      0.081200
     34 H51         5.6180    0.2310    2.6670 hc        1 E2P      0.035200
     35 H52         4.5800   -0.7810    3.7420 hc        1 E2P      0.035200
     36 H6          7.2320   -2.0080    2.8120 h1        1 E2P      0.099700
     37 HO6         8.2210   -0.7150    4.4870 ho        1 E2P      0.403000
     38 H7          5.7980   -3.3030    4.2210 ha        1 E2P      0.199000
     39 H8          6.2820   -3.2890    6.5750 ha        1 E2P      0.130000
     40 H101        6.6140    0.5020    5.9610 hc        1 E2P      0.076200
     41 H102        5.6610   -0.0830    7.3890 hc        1 E2P      0.076200
     42 H78         7.1560    1.0160    8.8360 hc        1 E2P      0.066700
     43 H79         8.1210    1.5820    7.4130 hc        1 E2P      0.066700
     44 H141        8.6000   -3.6920    7.3940 hc        1 E2P      0.053700
     45 H142        9.7080   -2.8500    8.5620 hc        1 E2P      0.053700
     46 H15        11.0490   -1.9120    6.6770 ha        1 E2P      0.112000
     47 H16        11.4270   -3.4670    4.8740 ha        1 E2P      0.107000
     48 H171       10.4120   -5.6990    5.0940 hc        1 E2P      0.035700
     49 H172        8.9830   -5.0390    5.9730 hc        1 E2P      0.035700
     50 H181        9.7710   -4.3670    3.0540 hc        1 E2P      0.043200
     51 H182        8.3450   -3.6920    3.9400 hc        1 E2P      0.043200
     52 H191        8.8490   -6.6220    3.1220 hc        1 E2P      0.024200
     53 H192        7.5980   -6.1470    4.3410 hc        1 E2P      0.024200
@<TRIPOS>BOND
     1    1    2 1   
     2    1   25 1   
     3    1   26 1   
     4    1   27 1   
     5    2    3 1   
     6    2   28 1   
     7    2   29 1   
     8    3    4 1   
     9    3   30 1   
    10    3   31 1   
    11    4    5 1   
    12    4   32 1   
    13    4   33 1   
    14    5    6 1   
    15    5   34 1   
    16    5   35 1   
    17    6    7 1   
    18    6    8 1   
    19    6   36 1   
    20    7   37 1   
    21    8    9 2   
    22    8   38 1   
    23    9   10 1   
    24    9   39 1   
    25   10   11 1   
    26   10   15 2   
    27   11   12 1   
    28   11   40 1   
    29   11   41 1   
    30   12   13 1   
    31   12   42 1   
    32   12   43 1   
    33   13   14 2   
    34   13   15 1   
    35   15   16 1   
    36   16   17 1   
    37   16   44 1   
    38   16   45 1   
    39   17   18 2   
    40   17   46 1   
    41   18   19 1   
    42   18   47 1   
    43   19   20 1   
    44   19   48 1   
    45   19   49 1   
    46   20   21 1   
    47   20   50 1   
    48   20   51 1   
    49   21   22 1   
    50   21   52 1   
    51   21   53 1   
    52   22   23 1   
    53   22   24 1   
@<TRIPOS>SUBSTRUCTURE
     1 E2P         1 TEMP              0 ****  ****    0 ROOT
