@<TRIPOS>MOLECULE
molecule
   53    53     1     0     0
SMALL
bcc


@<TRIPOS>ATOM
      1 C1           0.0000     0.0000     0.0000 c3         1 E2P      -0.092100
      2 C2           1.5300     0.0000     0.0000 c3         1 E2P      -0.084400
      3 C3           2.0400     0.0000     1.4420 c3         1 E2P      -0.081400
      4 C4           3.5690    -0.0000     1.4430 c3         1 E2P      -0.082400
      5 C5           4.0800     0.0000     2.8850 c3         1 E2P      -0.074400
      6 C6           5.6090    -0.0000     2.8850 c3         1 E2P       0.181300
      7 O6           6.0870     1.2200     2.3160 oh         1 E2P      -0.605800
      8 C7           6.1120    -0.1240     4.3020 c2         1 E2P      -0.190200
      9 C8           6.8780    -1.1600     4.6500 ce         1 E2P      -0.110000
     10 C9           7.3660    -1.2810     6.0220 ce         1 E2P      -0.043200
     11 C10          7.0790    -0.3000     7.1350 c3         1 E2P      -0.053200
     12 C11          7.8080    -0.8780     8.3620 c3         1 E2P      -0.193400
     13 C12          8.4610    -2.1400     7.8440 c          1 E2P       0.581300
     14 O12          9.1450    -2.9050     8.4950 o          1 E2P      -0.519100
     15 C13          8.1440    -2.2800     6.4860 cf         1 E2P      -0.208400
     16 C14          8.6230    -3.4250     5.6330 c3         1 E2P       0.102000
     17 C15          9.9980    -3.1150     5.1010 c2         1 E2P      -0.264200
     18 C16         10.9730    -3.9740     5.2640 c2         1 E2P      -0.213200
     19 C17         10.6860    -5.3410     5.8290 c3         1 E2P       0.068800
     20 C18         11.2390    -6.4100     4.8850 c3         1 E2P      -0.078400
     21 C19         10.9460    -7.7990     5.4580 c3         1 E2P      -0.191400
     22 C20         11.4910    -8.8510     4.5280 c          1 E2P       0.891600
     23 O21         12.0560    -8.5250     3.5110 o          1 E2P      -0.852300
     24 O20         11.3510   -10.1520     4.8300 o          1 E2P      -0.852300
     25 H13         -0.3610     0.8850     0.5110 hc         1 E2P       0.031033
     26 H11         -0.3610    -0.0000    -1.0210 hc         1 E2P       0.031033
     27 H12         -0.3610    -0.8840     0.5110 hc         1 E2P       0.031033
     28 H21          1.8920     0.8850    -0.5110 hc         1 E2P       0.041200
     29 H22          1.8920    -0.8850    -0.5110 hc         1 E2P       0.041200
     30 H31          1.6790     0.8850     1.9530 hc         1 E2P       0.039700
     31 H32          1.6780    -0.8840     1.9530 hc         1 E2P       0.039700
     32 H41          3.9310     0.8840     0.9320 hc         1 E2P       0.047700
     33 H42          3.9300    -0.8850     0.9330 hc         1 E2P       0.047700
     34 H51          3.7190     0.8850     3.3950 hc         1 E2P       0.052200
     35 H52          3.7180    -0.8840     3.3960 hc         1 E2P       0.052200
     36 H6           5.9700    -0.8380     2.3000 h1         1 E2P       0.038700
     37 HO6          6.9380     1.0780     1.9360 ho         1 E2P       0.406000
     38 H7           5.8500     0.6280     5.0370 ha         1 E2P       0.135000
     39 H8           7.1400    -1.9120     3.9150 ha         1 E2P       0.143000
     40 H101         7.4760     0.6770     6.8880 hc         1 E2P       0.057700
     41 H102         6.0130    -0.2450     7.3230 hc         1 E2P       0.057700
     42 H78          8.5590    -0.1830     8.7180 hc         1 E2P       0.072200
     43 H79          7.0990    -1.1150     9.1470 hc         1 E2P       0.072200
     44 H141         8.6620    -4.3280     6.2300 hc         1 E2P       0.053700
     45 H142         7.9400    -3.5680     4.8050 hc         1 E2P       0.053700
     46 H15          9.3020    -3.7180     4.5300 ha         1 E2P       0.076000
     47 H16         10.9150    -4.1340     6.3340 ha         1 E2P       0.082000
     48 H171        11.1580    -5.4370     6.8000 hc         1 E2P       0.043700
     49 H172         9.6150    -5.4710     5.9340 hc         1 E2P       0.043700
     50 H181        10.7670    -6.3130     3.9140 hc         1 E2P       0.060700
     51 H182        12.3090    -6.2810     4.7800 hc         1 E2P       0.060700
     52 H191        11.4180    -7.8950     6.4290 hc         1 E2P       0.026700
     53 H192         9.8760    -7.9280     5.5620 hc         1 E2P       0.026700
@<TRIPOS>BOND
     1     1     2 1
     2     1    25 1
     3     1    26 1
     4     1    27 1
     5     2     3 1
     6     2    28 1
     7     2    29 1
     8     3     4 1
     9     3    30 1
    10     3    31 1
    11     4     5 1
    12     4    32 1
    13     4    33 1
    14     5     6 1
    15     5    34 1
    16     5    35 1
    17     6     7 1
    18     6     8 1
    19     6    36 1
    20     7    37 1
    21     8     9 2
    22     8    38 1
    23     9    10 1
    24     9    39 1
    25    10    11 1
    26    10    15 2
    27    11    12 1
    28    11    40 1
    29    11    41 1
    30    12    13 1
    31    12    42 1
    32    12    43 1
    33    13    14 2
    34    13    15 1
    35    15    16 1
    36    16    17 1
    37    16    44 1
    38    16    45 1
    39    17    18 2
    40    17    46 1
    41    18    19 1
    42    18    47 1
    43    19    20 1
    44    19    48 1
    45    19    49 1
    46    20    21 1
    47    20    50 1
    48    20    51 1
    49    21    22 1
    50    21    52 1
    51    21    53 1
    52    22    23 1
    53    22    24 1
@<TRIPOS>SUBSTRUCTURE
     1 E2P         1 TEMP              0 ****  ****    0 ROOT
