@<TRIPOS>MOLECULE
E2W
   57    60     1     0     0
SMALL
bcc


@<TRIPOS>ATOM
      1 C1           0.0000     0.0000     0.0000 ca         1 E2W      -0.101000
      2 C10          7.7900    -7.2770     5.0330 c3         1 E2W       0.108500
      3 C11          2.0710    -0.0120     6.1060 c3         1 E2W       0.038900
      4 C12          1.1530     0.4120     7.2500 c3         1 E2W      -0.029400
      5 C13         -0.1260    -0.4310     7.1800 c3         1 E2W      -0.028400
      6 C14         -0.9260     0.0150     5.9560 c3         1 E2W      -0.068700
      7 C15          3.9940    -1.3690     3.5440 c3         1 E2W       0.157800
      8 C16          5.5240    -1.3230     3.5230 c3         1 E2W      -0.037400
      9 C17          6.0750    -2.7430     3.3840 c3         1 E2W      -0.025400
     10 C18          7.6040    -2.6970     3.3630 c3         1 E2W      -0.064700
     11 C19          8.1480    -4.0960     3.2260 ca         1 E2W       0.343600
     12 C2           1.3940     0.0000     0.0000 ca         1 E2W      -0.027600
     13 C20          9.0190    -4.3910     2.1960 ca         1 E2W      -0.179300
     14 C21          9.5140    -5.6800     2.0770 ca         1 E2W      -0.145000
     15 C22          9.1110    -6.6310     3.0070 ca         1 E2W       0.023800
     16 C23          8.2320    -6.2600     4.0140 ca         1 E2W       0.342600
     17 C3           2.0920     0.0000     1.1720 ca         1 E2W      -0.093000
     18 C4           1.3990     0.0000     2.3890 ca         1 E2W      -0.167300
     19 C5          -0.0160     0.0010     2.3940 ca         1 E2W       0.379600
     20 C6          -0.7010     0.0060     1.1660 ca         1 E2W      -0.124300
     21 C7           2.0790    -0.0030     3.6280 ca         1 E2W       0.052600
     22 C8           1.3260    -0.0040     4.7980 ca         1 E2W      -0.170600
     23 C9          -0.0570     0.0010     4.7220 ca         1 E2W       0.403600
     24 N10         -0.6740     0.0080     3.5540 nb         1 E2W      -0.578000
     25 N11          3.4650    -0.0050     3.6780 nu         1 E2W      -0.488600
     26 N24          7.7890    -5.0210     4.0950 nb         1 E2W      -0.519000
     27 N25          6.5680    -7.9430     4.5630 n7         1 E2W      -0.356700
     28 O25          6.1080    -8.9400     5.5290 oh         1 E2W      -0.474300
     29 O26          9.5690    -7.9090     2.9300 oh         1 E2W      -0.481100
     30 Cl2          2.2520     0.0000    -1.5100 cl         1 E2W      -0.031400
     31 H1          -0.5330    -0.0000    -0.9430 ha         1 E2W       0.115000
     32 H2           7.5910    -6.7820     5.9760 h1         1 E2W       0.027700
     33 H3           8.5720    -8.0140     5.1700 h1         1 E2W       0.027700
     34 H4           2.4400    -1.0120     6.2990 hc         1 E2W       0.029700
     35 H5           2.9050     0.6760     6.0450 hc         1 E2W       0.029700
     36 H6           1.6500     0.2410     8.1980 hc         1 E2W       0.017200
     37 H7           0.9040     1.4610     7.1470 hc         1 E2W       0.017200
     38 H8           0.1320    -1.4780     7.0840 hc         1 E2W       0.018200
     39 H9          -0.7150    -0.2750     8.0760 hc         1 E2W       0.018200
     40 H10         -1.7610    -0.6600     5.8120 hc         1 E2W       0.029200
     41 H11         -1.2960     1.0200     6.1200 hc         1 E2W       0.029200
     42 H12          3.6330    -1.8080     2.6220 h1         1 E2W       0.015200
     43 H13          3.6620    -1.9680     4.3840 h1         1 E2W       0.015200
     44 H14          5.8550    -0.7230     2.6840 hc         1 E2W       0.016700
     45 H15          5.8850    -0.8830     4.4450 hc         1 E2W       0.016700
     46 H16          5.7440    -3.3430     4.2240 hc         1 E2W       0.027700
     47 H17          5.7140    -3.1820     2.4620 hc         1 E2W       0.027700
     48 H18          7.9650    -2.2570     4.2840 hc         1 E2W       0.021200
     49 H19          7.9350    -2.0980     2.5230 hc         1 E2W       0.021200
     50 H20          9.3110    -3.6240     1.4890 ha         1 E2W       0.116000
     51 H21         10.1990    -5.9400     1.2790 ha         1 E2W       0.117000
     52 H22          3.1750     0.0000     1.1610 ha         1 E2W       0.118000
     53 H23         -1.7840     0.0060     1.1490 ha         1 E2W       0.119000
     54 H24          3.9800     0.7700     3.3100 hn         1 E2W       0.292800
     55 H25          6.7470    -8.3870     3.6840 hn         1 E2W       0.244800
     56 H26          5.2330    -9.2110     5.3080 ho         1 E2W       0.404000
     57 H27         10.5030    -7.9010     2.7990 ho         1 E2W       0.406000
@<TRIPOS>BOND
     1     1    12 ar  
     2     1    20 ar  
     3     1    31 1   
     4     2    16 1   
     5     2    27 1   
     6     2    32 1   
     7     2    33 1   
     8     3     4 1   
     9     3    22 1   
    10     3    34 1   
    11     3    35 1   
    12     4     5 1   
    13     4    36 1   
    14     4    37 1   
    15     5     6 1   
    16     5    38 1   
    17     5    39 1   
    18     6    23 1   
    19     6    40 1   
    20     6    41 1   
    21     7     8 1   
    22     7    25 1   
    23     7    42 1   
    24     7    43 1   
    25     8     9 1   
    26     8    44 1   
    27     8    45 1   
    28     9    10 1   
    29     9    46 1   
    30     9    47 1   
    31    10    11 1   
    32    10    48 1   
    33    10    49 1   
    34    11    13 ar  
    35    11    26 ar  
    36    12    17 ar  
    37    12    30 1   
    38    13    14 ar  
    39    13    50 1   
    40    14    15 ar  
    41    14    51 1   
    42    15    16 ar  
    43    15    29 1   
    44    16    26 ar  
    45    17    18 ar  
    46    17    52 1   
    47    18    19 ar  
    48    18    21 ar  
    49    19    20 ar  
    50    19    24 ar  
    51    20    53 1   
    52    21    22 ar  
    53    21    25 1   
    54    22    23 ar  
    55    23    24 ar  
    56    25    54 1   
    57    27    28 1   
    58    27    55 1   
    59    28    56 1   
    60    29    57 1   
@<TRIPOS>SUBSTRUCTURE
     1 E2W         1 TEMP              0 ****  ****    0 ROOT
