@<TRIPOS>MOLECULE
molecule
   41    43     1     0     0
SMALL
bcc


@<TRIPOS>ATOM
      1 N01          0.0000     0.0000     0.0000 nc         1 E2Z      -0.690000
      2 C02          1.3050     0.0000     0.0000 cd         1 E2Z       0.431400
      3 N03          1.7360     0.0000     1.2900 na         1 E2Z      -0.215700
      4 C04          0.6180    -0.0000     2.0870 cd         1 E2Z      -0.241600
      5 C05         -0.4470    -0.0010     1.2650 cc         1 E2Z       0.312200
      6 C1'          8.0960    -3.4290    -4.7130 ca         1 E2Z      -0.060300
      7 N11          3.3190    -0.0020     3.0190 nb         1 E2Z      -0.757000
      8 C12          3.0620    -0.0000     1.7210 ca         1 E2Z       0.793500
      9 N13          4.0330    -0.0010     0.8210 nb         1 E2Z      -0.764000
     10 C14          5.3020    -0.0020     1.1960 ca         1 E2Z       0.497600
     11 C15          5.6080    -0.0030     2.5480 ca         1 E2Z      -0.397600
     12 C16          4.5660    -0.0030     3.4620 ca         1 E2Z       0.490200
     13 C17          6.4010    -0.0030     0.1650 c3         1 E2Z      -0.131700
     14 C18          6.2070    -1.1850    -0.7870 c3         1 E2Z       0.161800
     15 N19          7.2780    -1.1850    -1.7920 n7         1 E2Z      -0.826200
     16 C2'          7.3530    -3.2700    -5.8670 ca         1 E2Z      -0.166000
     17 C20          7.1230    -2.3090    -2.7260 c3         1 E2Z       0.161800
     18 C21          8.2550    -2.2770    -3.7550 c3         1 E2Z      -0.037100
     19 C3'          7.2080    -4.3290    -6.7480 ca         1 E2Z       0.135900
     20 C4'          7.8070    -5.5460    -6.4690 ca         1 E2Z      -0.169000
     21 C5'          8.5480    -5.7030    -5.3140 ca         1 E2Z      -0.101000
     22 C6'          8.6890    -4.6470    -4.4330 ca         1 E2Z      -0.140000
     23 F7'          6.4820    -4.1750    -7.8760 f          1 E2Z      -0.140900
     24 H02          1.9380     0.0000    -0.8790 h5         1 E2Z       0.081100
     25 H04          0.5970    -0.0000     3.1700 h4         1 E2Z       0.191000
     26 H05         -1.4860    -0.0010     1.5710 h4         1 E2Z       0.046100
     27 H15          6.6380    -0.0030     2.8830 ha         1 E2Z       0.155000
     28 H16          4.7700    -0.0040     4.5260 h4         1 E2Z       0.038100
     29 H17          6.3700     0.9220    -0.3970 hc         1 E2Z       0.069200
     30 H17A         7.3600    -0.0930     0.6610 hc         1 E2Z       0.069200
     31 H18          6.2380    -2.1100    -0.2250 h1         1 E2Z       0.045700
     32 H18A         5.2470    -1.0960    -1.2820 h1         1 E2Z       0.045700
     33 HN19         7.2580    -0.3230    -2.3000 hn         1 E2Z       0.352800
     34 H2'          6.8850    -2.3170    -6.0820 ha         1 E2Z       0.145000
     35 H20          6.1700    -2.2270    -3.2350 h1         1 E2Z       0.039200
     36 H20A         7.1600    -3.2420    -2.1780 h1         1 E2Z       0.039200
     37 H21          9.2080    -2.3590    -3.2460 hc         1 E2Z       0.057700
     38 H21A         8.2180    -1.3440    -4.3040 hc         1 E2Z       0.057700
     39 H4'          7.6950    -6.3740    -7.1580 ha         1 E2Z       0.145000
     40 H5'          9.0150    -6.6560    -5.0950 ha         1 E2Z       0.137000
     41 H6'          9.2710    -4.7700    -3.5280 ha         1 E2Z       0.137000
@<TRIPOS>BOND
     1     1     2 2
     2     1     5 1
     3     2     3 1
     4     3     4 1
     5     3     8 1
     6     4     5 2
     7     6    16 ar
     8     6    18 1
     9     6    22 ar
    10     7     8 ar
    11     7    12 ar
    12     8     9 ar
    13     9    10 ar
    14    10    11 ar
    15    10    13 1
    16    11    12 ar
    17    13    14 1
    18    14    15 1
    19    15    17 1
    20    16    19 ar
    21    17    18 1
    22    19    20 ar
    23    19    23 1
    24    20    21 ar
    25    21    22 ar
    26     2    24 1
    27     4    25 1
    28     5    26 1
    29    11    27 1
    30    12    28 1
    31    13    29 1
    32    13    30 1
    33    14    31 1
    34    14    32 1
    35    15    33 1
    36    16    34 1
    37    17    35 1
    38    17    36 1
    39    18    37 1
    40    18    38 1
    41    20    39 1
    42    21    40 1
    43    22    41 1
@<TRIPOS>SUBSTRUCTURE
     1 E2Z         1 TEMP              0 ****  ****    0 ROOT
