@<TRIPOS>MOLECULE
E30
   19    20     1     0     0
SMALL
bcc


@<TRIPOS>ATOM
      1 N11          0.0000     0.0000     0.0000 nv         1 E30      -0.564200
      2 C12          1.3950     0.0000     0.0000 ca         1 E30       0.054600
      3 C13          2.0890     0.0000     1.2050 ca         1 E30      -0.114500
      4 C14          3.4660    -0.0000     1.2090 ca         1 E30      -0.065500
      5 C15          4.1660    -0.0000     0.0010 ca         1 E30      -0.150500
      6 C16          3.4670    -0.0000    -1.2080 ca         1 E30      -0.065500
      7 C17          2.0890    -0.0050    -1.2050 ca         1 E30      -0.114500
      8 C18          5.6450     0.0010     0.0010 cc         1 E30       0.311000
      9 N19          6.4510     0.0010    -1.0900 na         1 E30       0.287600
     10 N20          7.7610     0.0030    -0.5790 nc         1 E30      -0.401800
     11 N21          7.6620     0.0030     0.7060 nd         1 E30       0.035000
     12 N22          6.4280     0.0070     1.0600 nd         1 E30      -0.394000
     13 H11         -0.5000    -0.8670     0.0010 hn         1 E30       0.277800
     14 H13          1.5460     0.0000     2.1420 ha         1 E30       0.114000
     15 H17          1.5460    -0.0050    -2.1420 ha         1 E30       0.114000
     16 H14          4.0060    -0.0000     2.1480 ha         1 E30       0.111500
     17 H16          4.0070    -0.0020    -2.1470 ha         1 E30       0.111500
     18 H19          6.1730     0.0010    -2.0510 hn         1 E30       0.173700
     19 H2          -0.5000     0.8670    -0.0010 hn         1 E30       0.277800
@<TRIPOS>BOND
     1     1     2 1   
     2     1    13 1   
     3     1    19 1   
     4     2     3 ar  
     5     2     7 ar  
     6     3     4 ar  
     7     3    14 1   
     8     4     5 ar  
     9     4    16 1   
    10     5     6 ar  
    11     5     8 1   
    12     6     7 ar  
    13     6    17 1   
    14     7    15 1   
    15     8     9 1   
    16     8    12 2   
    17     9    10 1   
    18     9    18 1   
    19    10    11 2   
    20    11    12 1   
@<TRIPOS>SUBSTRUCTURE
     1 E30         1 TEMP              0 ****  ****    0 ROOT
