@<TRIPOS>MOLECULE
molecule
   19    20     1     0     0
SMALL
bcc


@<TRIPOS>ATOM
      1 N11          0.0000     0.0000     0.0000 nv         1 E30      -0.993200
      2 C12          1.3950     0.0000     0.0000 ca         1 E30       0.190600
      3 C13          2.0890     0.0000     1.2050 ca         1 E30      -0.148000
      4 C14          3.4660    -0.0000     1.2090 ca         1 E30      -0.088000
      5 C15          4.1660    -0.0000     0.0010 ca         1 E30      -0.155500
      6 C16          3.4670    -0.0000    -1.2080 ca         1 E30      -0.088000
      7 C17          2.0890    -0.0050    -1.2050 ca         1 E30      -0.148000
      8 C18          5.6450     0.0010     0.0010 cc         1 E30       0.480000
      9 N19          6.4510     0.0010    -1.0900 na         1 E30      -0.191400
     10 N20          7.7610     0.0030    -0.5790 nc         1 E30      -0.214800
     11 N21          7.6620     0.0030     0.7060 nd         1 E30      -0.004000
     12 N22          6.4280     0.0070     1.0600 nd         1 E30      -0.416000
     13 H11         -0.5000    -0.8670     0.0010 hn         1 E30       0.433800
     14 H13          1.5460     0.0000     2.1420 ha         1 E30       0.144500
     15 H17          1.5460    -0.0050    -2.1420 ha         1 E30       0.144500
     16 H14          4.0060    -0.0000     2.1480 ha         1 E30       0.141500
     17 H16          4.0070    -0.0020    -2.1470 ha         1 E30       0.141500
     18 H19          6.1730     0.0010    -2.0510 hn         1 E30       0.337700
     19 H2          -0.5000     0.8670    -0.0010 hn         1 E30       0.433800
@<TRIPOS>BOND
     1     1     2 1
     2     2     3 ar
     3     2     7 ar
     4     3     4 ar
     5     4     5 ar
     6     5     6 ar
     7     5     8 1
     8     6     7 ar
     9     8     9 1
    10     8    12 2
    11     9    10 1
    12    10    11 2
    13    11    12 1
    14     1    13 1
    15     3    14 1
    16     7    15 1
    17     4    16 1
    18     6    17 1
    19     9    18 1
    20     1    19 1
@<TRIPOS>SUBSTRUCTURE
     1 E30         1 TEMP              0 ****  ****    0 ROOT
