@<TRIPOS>MOLECULE
E31
   47    49     1     0     0
SMALL
bcc


@<TRIPOS>ATOM
      1 C            0.0000     0.0000     0.0000 c3         1 E31       0.011900
      2 N            1.6380     0.9340     2.2700 nb         1 E31      -0.605000
      3 O            7.8160     2.5630     5.3130 o          1 E31      -0.372100
      4 C12          8.8090     2.0910     5.8220 c          1 E31       0.293100
      5 N4           9.7800     2.9030     6.2850 nz         1 E31       0.193600
      6 C8           7.7450    -0.0770     5.3500 ca         1 E31      -0.156300
      7 C9           6.6500    -0.3520     6.1490 ca         1 E31      -0.072500
      8 C10          5.5390    -0.9700     5.6100 ca         1 E31      -0.072000
      9 C7           7.7220    -0.4150     4.0090 ca         1 E31      -0.072500
     10 C6           6.6110    -1.0340     3.4700 ca         1 E31      -0.072000
     11 C5           5.5200    -1.3140     4.2720 ca         1 E31      -0.039300
     12 C4           3.3500    -0.9440     3.1710 ca         1 E31       0.407600
     13 C20          2.9130    -0.9800     1.8540 ca         1 E31      -0.344600
     14 C2           2.0320     0.0000     1.4210 ca         1 E31       0.429600
     15 C1           1.5300     0.0000     0.0000 c3         1 E31      -0.073700
     16 N1           2.9180     0.0170     3.9670 nb         1 E31      -0.629000
     17 C3           2.0750     0.9400     3.5220 cp         1 E31       0.673500
     18 C13          1.6110     2.0030     4.4460 cp         1 E31      -0.157500
     19 C18          0.7260     2.9810     3.9980 ca         1 E31      -0.055000
     20 C17          0.2980     3.9690     4.8620 ca         1 E31      -0.048600
     21 Cl          -0.8050     5.1900     4.3060 cl         1 E31      -0.008400
     22 C14          2.0540     2.0240     5.7670 ca         1 E31      -0.071000
     23 C15          1.6160     3.0130     6.6250 ca         1 E31      -0.110000
     24 C16          0.7470     3.9880     6.1720 ca         1 E31      -0.079000
     25 H1          -0.3610    -0.7050     0.7390 hc         1 E31       0.009700
     26 H2          -0.3610    -0.2880    -0.9800 hc         1 E31       0.009700
     27 H3          -0.3610     0.9930     0.2410 hc         1 E31       0.009700
     28 H4           9.5220     3.8560     6.1240 hn         1 E31       0.245800
     29 H5          10.6370     2.7030     5.8080 hn         1 E31       0.245800
     30 H6           9.8430     0.2780     5.4000 hc         1 E31       0.054200
     31 H7           9.0520     0.3220     6.9820 hc         1 E31       0.054200
     32 H8           6.6650    -0.0820     7.1980 ha         1 E31       0.100500
     33 H9           4.6830    -1.1880     6.2380 ha         1 E31       0.123500
     34 H10          8.5770    -0.1960     3.3810 ha         1 E31       0.100500
     35 H11          6.5950    -1.3010     2.4210 ha         1 E31       0.123500
     36 H12          3.8180    -2.5820     4.4490 hc         1 E31       0.038200
     37 H13          4.6120    -2.6330     2.8680 hc         1 E31       0.038200
     38 H14          3.0710    -1.8690     1.2550 ha         1 E31       0.133000
     39 H15          1.8910    -0.8840    -0.5110 hc         1 E31       0.025700
     40 H16          1.8910     0.8850    -0.5110 hc         1 E31       0.025700
     41 H17          0.4300     3.0070     2.9560 ha         1 E31       0.137000
     42 H18          2.7350     1.2600     6.1230 ha         1 E31       0.116000
     43 H19          1.9620     3.0310     7.6510 ha         1 E31       0.105000
     44 H20          0.4070     4.7630     6.8480 ha         1 E31       0.116000
     45 H43          9.9040     2.7480     7.2660 hn         1 E31       0.245800
     46 C19          4.3070    -1.9890     3.6850 c3         1 E31      -0.018400
     47 C11          8.9580     0.5960     5.9380 c3         1 E31      -0.006100
@<TRIPOS>BOND
     1     1    15 1   
     2     1    25 1   
     3     1    26 1   
     4     1    27 1   
     5     2    14 ar  
     6     2    17 ar  
     7     3     4 2   
     8     4     5 1   
     9     4    47 1   
    10     5    28 1   
    11     5    29 1   
    12     5    45 1   
    13     6     7 ar  
    14     6     9 ar  
    15     6    47 1   
    16     7     8 ar  
    17     7    32 1   
    18     8    11 ar  
    19     8    33 1   
    20     9    10 ar  
    21     9    34 1   
    22    10    11 ar  
    23    10    35 1   
    24    11    46 1   
    25    12    13 ar  
    26    12    16 ar  
    27    12    46 1   
    28    13    14 ar  
    29    13    38 1   
    30    14    15 1   
    31    15    39 1   
    32    15    40 1   
    33    16    17 ar  
    34    17    18 1   
    35    18    19 ar  
    36    18    22 ar  
    37    19    20 ar  
    38    19    41 1   
    39    20    21 1   
    40    20    24 ar  
    41    22    23 ar  
    42    22    42 1   
    43    23    24 ar  
    44    23    43 1   
    45    24    44 1   
    46    30    47 1   
    47    31    47 1   
    48    36    46 1   
    49    37    46 1   
@<TRIPOS>SUBSTRUCTURE
     1 E31         1 TEMP              0 ****  ****    0 ROOT
