@<TRIPOS>MOLECULE
molecule
   47    49     1     0     0
SMALL
bcc


@<TRIPOS>ATOM
      1 C            0.0000     0.0000     0.0000 c3         1 E31      -0.085100
      2 N            1.6380     0.9340     2.2700 nb         1 E31      -0.729000
      3 O            7.8160     2.5630     5.3130 o          1 E31      -0.370100
      4 C12          8.8090     2.0910     5.8220 c          1 E31       0.464100
      5 N4           9.7800     2.9030     6.2850 nz         1 E31      -0.686400
      6 C8           7.7450    -0.0770     5.3500 ca         1 E31      -0.136300
      7 C9           6.6500    -0.3520     6.1490 ca         1 E31      -0.101500
      8 C10          5.5390    -0.9700     5.6100 ca         1 E31      -0.101000
      9 C7           7.7220    -0.4150     4.0090 ca         1 E31      -0.101500
     10 C6           6.6110    -1.0340     3.4700 ca         1 E31      -0.101000
     11 C5           5.5200    -1.3140     4.2720 ca         1 E31      -0.033300
     12 C4           3.3500    -0.9440     3.1710 ca         1 E31       0.464600
     13 C20          2.9130    -0.9800     1.8540 ca         1 E31      -0.379600
     14 C2           2.0320     0.0000     1.4210 ca         1 E31       0.484600
     15 C1           1.5300     0.0000     0.0000 c3         1 E31      -0.133700
     16 N1           2.9180     0.0170     3.9670 nb         1 E31      -0.751000
     17 C3           2.0750     0.9400     3.5220 cp         1 E31       0.757500
     18 C13          1.6110     2.0030     4.4460 cp         1 E31      -0.139500
     19 C18          0.7260     2.9810     3.9980 ca         1 E31      -0.074000
     20 C17          0.2980     3.9690     4.8620 ca         1 E31       0.015400
     21 Cl          -0.8050     5.1900     4.3060 cl         1 E31      -0.092400
     22 C14          2.0540     2.0240     5.7670 ca         1 E31      -0.091000
     23 C15          1.6160     3.0130     6.6250 ca         1 E31      -0.139000
     24 C16          0.7470     3.9880     6.1720 ca         1 E31      -0.101000
     25 H1          -0.3610    -0.7050     0.7390 hc         1 E31       0.045367
     26 H2          -0.3610    -0.2880    -0.9800 hc         1 E31       0.045367
     27 H3          -0.3610     0.9930     0.2410 hc         1 E31       0.045367
     28 H4           9.5220     3.8560     6.1240 hn         1 E31       0.475800
     29 H5          10.6370     2.7030     5.8080 hn         1 E31       0.475800
     30 H6           9.8430     0.2780     5.4000 hc         1 E31       0.093700
     31 H7           9.0520     0.3220     6.9820 hc         1 E31       0.093700
     32 H8           6.6650    -0.0820     7.1980 ha         1 E31       0.128000
     33 H9           4.6830    -1.1880     6.2380 ha         1 E31       0.154000
     34 H10          8.5770    -0.1960     3.3810 ha         1 E31       0.128000
     35 H11          6.5950    -1.3010     2.4210 ha         1 E31       0.154000
     36 H12          3.8180    -2.5820     4.4490 hc         1 E31       0.075700
     37 H13          4.6120    -2.6330     2.8680 hc         1 E31       0.075700
     38 H14          3.0710    -1.8690     1.2550 ha         1 E31       0.151000
     39 H15          1.8910    -0.8840    -0.5110 hc         1 E31       0.061200
     40 H16          1.8910     0.8850    -0.5110 hc         1 E31       0.061200
     41 H17          0.4300     3.0070     2.9560 ha         1 E31       0.171000
     42 H18          2.7350     1.2600     6.1230 ha         1 E31       0.147000
     43 H19          1.9620     3.0310     7.6510 ha         1 E31       0.136000
     44 H20          0.4070     4.7630     6.8480 ha         1 E31       0.148000
     45 H43          9.9040     2.7480     7.2660 hn         1 E31       0.475800
     46 C19          4.3070    -1.9890     3.6850 c3         1 E31      -0.087400
     47 C11          8.9580     0.5960     5.9380 c3         1 E31      -0.092100
@<TRIPOS>BOND
     1    23    24 ar
     2    23    22 ar
     3    24    20 ar
     4    22    18 ar
     5    20    21 1
     6    20    19 ar
     7    18    19 ar
     8    18    17 1
     9     1    15 1
    10     2    17 ar
    11     2    14 ar
    12    17    16 ar
    13    15    14 1
    14    14    13 ar
    15    16    12 ar
    16    13    12 ar
    17    12    46 1
    18     5     4 1
    19     8     7 ar
    20     8    11 ar
    21    46    11 1
    22     7     6 ar
    23    11    10 ar
    24     4     3 2
    25     4    47 1
    26     6    47 1
    27     6     9 ar
    28    10     9 ar
    29     1    25 1
    30     1    26 1
    31     1    27 1
    32     5    28 1
    33     5    29 1
    34    47    30 1
    35    47    31 1
    36     7    32 1
    37     8    33 1
    38     9    34 1
    39    10    35 1
    40    46    36 1
    41    46    37 1
    42    13    38 1
    43    15    39 1
    44    15    40 1
    45    19    41 1
    46    22    42 1
    47    23    43 1
    48    24    44 1
    49    45     5 1
@<TRIPOS>SUBSTRUCTURE
     1 E31         1 TEMP              0 ****  ****    0 ROOT
