@<TRIPOS>MOLECULE
E32
   43    47     1     0     0
SMALL
bcc


@<TRIPOS>ATOM
      1 F25          0.0000     0.0000     0.0000 f          1 E32      -0.110900
      2 C24          1.3500     0.0000     0.0000 ca         1 E32       0.135900
      3 C23          2.0400     0.0000     1.1960 ca         1 E32      -0.095000
      4 C8           2.0460    -0.0050    -1.2080 ca         1 E32      -0.034400
      5 N6           1.3440    -0.0100    -2.4180 nh         1 E32      -0.376000
      6 C5           1.7240     1.1530    -3.2580 c3         1 E32       0.152800
      7 C7           1.6760    -1.2100    -3.2170 c3         1 E32       0.140800
      8 C2           1.6370    -0.7900    -4.6980 c3         1 E32      -0.098500
      9 N1           0.5980    -1.5420    -5.4140 nz         1 E32       0.083400
     10 C4           1.2970     0.7170    -4.6820 c3         1 E32      -0.026400
     11 C9           3.4310    -0.0050    -1.2100 ca         1 E32      -0.163000
     12 C10          4.1290     0.0010    -0.0080 ca         1 E32      -0.047400
     13 N11          5.5230     0.0010    -0.0190 n          1 E32       0.076000
     14 C12          6.2410    -0.0060    -1.2970 cx         1 E32      -0.091300
     15 C14          6.0770     1.2150    -2.2040 cx         1 E32      -0.059900
     16 C13          7.3960     0.9830    -1.4630 cx         1 E32      -0.059900
     17 C15          6.2150     0.0060     1.1370 c          1 E32       0.544000
     18 O16          7.4330     0.0070     1.1220 o          1 E32      -0.595500
     19 C17          5.4900     0.0120     2.4170 cc         1 E32       0.116000
     20 N21          4.1220     0.0110     2.4110 na         1 E32       0.471000
     21 C22          3.4300     0.0010     1.1990 ca         1 E32      -0.174200
     22 C20          3.7150     0.0170     3.7070 cc         1 E32      -0.435600
     23 N18          5.8960     0.0170     3.6700 nd         1 E32      -0.509000
     24 C19          4.8350     0.0200     4.4740 cd         1 E32       0.317200
     25 H1           1.4970    -0.0020     2.1330 ha         1 E32       0.145000
     26 H2           1.1800     2.0380    -2.9520 h1         1 E32       0.048700
     27 H3           2.7940     1.3200    -3.2160 h1         1 E32       0.048700
     28 H4           2.6680    -1.5610    -2.9600 h1         1 E32       0.042700
     29 H5           0.9440    -1.9870    -3.0350 h1         1 E32       0.042700
     30 H6           2.6060    -0.9490    -5.1570 hx         1 E32       0.093700
     31 H7          -0.2840    -1.4030    -4.9630 hn         1 E32       0.227467
     32 H8           0.5450    -1.2190    -6.3600 hn         1 E32       0.227467
     33 H10          1.8730     1.2460    -5.4320 hc         1 E32       0.046200
     34 H11          0.2340     0.8710    -4.8250 hc         1 E32       0.046200
     35 H12          3.9710    -0.0090    -2.1490 ha         1 E32       0.135000
     36 H13          6.3700    -0.9450    -1.8200 h1         1 E32       0.071700
     37 H14          5.4540     2.0090    -1.8120 hc         1 E32       0.058450
     38 H15          6.0980     1.0130    -3.2680 hc         1 E32       0.058450
     39 H16          7.5770     1.6360    -0.6170 hc         1 E32       0.058450
     40 H17          8.2210     0.6390    -2.0740 hc         1 E32       0.058450
     41 H18          2.8150     0.0200     4.3090 h4         1 E32       0.181000
     42 H19          4.9930     0.0250     5.5450 h4         1 E32       0.022100
     43 H131         0.8260    -2.5160    -5.4060 hn         1 E32       0.227467
@<TRIPOS>BOND
     1     1     2 1   
     2     2     3 ar  
     3     2     4 ar  
     4     3    21 ar  
     5     3    25 1   
     6     4     5 1   
     7     4    11 ar  
     8     5     6 1   
     9     5     7 1   
    10     6    10 1   
    11     6    26 1   
    12     6    27 1   
    13     7     8 1   
    14     7    28 1   
    15     7    29 1   
    16     8     9 1   
    17     8    10 1   
    18     8    30 1   
    19     9    31 1   
    20     9    32 1   
    21     9    43 1   
    22    10    33 1   
    23    10    34 1   
    24    11    12 ar  
    25    11    35 1   
    26    12    13 1   
    27    12    21 ar  
    28    13    14 1   
    29    13    17 1   
    30    14    15 1   
    31    14    16 1   
    32    14    36 1   
    33    15    16 1   
    34    15    37 1   
    35    15    38 1   
    36    16    39 1   
    37    16    40 1   
    38    17    18 2   
    39    17    19 1   
    40    19    20 1   
    41    19    23 2   
    42    20    21 1   
    43    20    22 1   
    44    22    24 2   
    45    22    41 1   
    46    23    24 1   
    47    24    42 1   
@<TRIPOS>SUBSTRUCTURE
     1 E32         1 TEMP              0 ****  ****    0 ROOT
