@<TRIPOS>MOLECULE
E34
   25    25     1     0     0
SMALL
bcc


@<TRIPOS>ATOM
      1 O8           0.0000     0.0000     0.0000 o          1 E34      -0.593000
      2 C4           1.2150     0.0000     0.0000 c          1 E34       0.721700
      3 O7           1.8890     0.0000     1.1680 os         1 E34      -0.415900
      4 C11          1.0970     0.0000     2.3850 c3         1 E34       0.227400
      5 C13          2.0290    -0.0010     3.5990 c3         1 E34      -0.004100
      6 C1           1.9520    -0.0060    -1.2760 ca         1 E34      -0.153600
      7 C3           3.3500    -0.0070    -1.2770 ca         1 E34      -0.051000
      8 C6           4.0390    -0.0130    -2.4700 ca         1 E34      -0.133000
      9 C9           3.3480    -0.0180    -3.6750 ca         1 E34       0.053600
     10 N12          4.0500    -0.0240    -4.8780 nv         1 E34      -0.557200
     11 C5           1.9500    -0.0180    -3.6820 ca         1 E34       0.000600
     12 N10          1.2550    -0.0230    -4.8980 nv         1 E34      -0.550200
     13 C2           1.2540    -0.0180    -2.4880 ca         1 E34      -0.044000
     14 H1           0.4730     0.8850     2.4100 h1         1 E34       0.008700
     15 H2           0.4710    -0.8840     2.4090 h1         1 E34       0.008700
     16 H3           2.6550     0.8830     3.5740 hc         1 E34       0.010033
     17 H4           2.6530    -0.8860     3.5740 hc         1 E34       0.010033
     18 H5           1.4390     0.0000     4.5070 hc         1 E34       0.010033
     19 H6           3.8920    -0.0030    -0.3390 ha         1 E34       0.115000
     20 H7           5.1220    -0.0130    -2.4680 ha         1 E34       0.111000
     21 H8           4.3180     0.8400    -5.3060 hn         1 E34       0.274800
     22 H9           4.3170    -0.8930    -5.2970 hn         1 E34       0.274800
     23 H10          0.9910    -0.8910    -5.3190 hn         1 E34       0.272800
     24 H11          0.9900     0.8420    -5.3260 hn         1 E34       0.272800
     25 H12          0.1710    -0.0170    -2.4910 ha         1 E34       0.129000
@<TRIPOS>BOND
     1     1     2 2   
     2     2     3 1   
     3     2     6 1   
     4     3     4 1   
     5     4     5 1   
     6     4    14 1   
     7     4    15 1   
     8     5    16 1   
     9     5    17 1   
    10     5    18 1   
    11     6     7 ar  
    12     6    13 ar  
    13     7     8 ar  
    14     7    19 1   
    15     8     9 ar  
    16     8    20 1   
    17     9    10 1   
    18     9    11 ar  
    19    10    21 1   
    20    10    22 1   
    21    11    12 1   
    22    11    13 ar  
    23    12    23 1   
    24    12    24 1   
    25    13    25 1   
@<TRIPOS>SUBSTRUCTURE
     1 E34         1 TEMP              0 ****  ****    0 ROOT
