@<TRIPOS>MOLECULE
E35
   23    23     1     0     0
SMALL
bcc


@<TRIPOS>ATOM
      1 C01         0.0740    0.0010    0.0820 c3        1 E35     -0.101100
      2 C02         1.5780   -0.0740   -0.0170 c3        1 E35      0.140400
      3 O03         2.0710   -0.0200    1.3360 os        1 E35     -0.435900
      4 C04         3.4290   -0.0760    1.4870 c         1 E35      0.645700
      5 O05         4.1250   -0.1680    0.4710 o         1 E35     -0.544000
      6 C06         3.8870   -0.0180    2.8870 ca        1 E35     -0.061600
      7 C07         5.2660   -0.0730    3.1260 ca        1 E35     -0.165500
      8 C08         5.7300   -0.0190    4.4450 ca        1 E35      0.146100
      9 O09         7.0670   -0.0680    4.7630 oh        1 E35     -0.492600
     10 C10         4.8410    0.0890    5.5270 ca        1 E35     -0.217000
     11 C11         3.4710    0.1420    5.2550 ca        1 E35      0.146100
     12 O12         2.5270    0.2480    6.2500 oh        1 E35     -0.492600
     13 C13         2.9780    0.0900    3.9380 ca        1 E35     -0.165500
     14 H1         -0.2400    0.9500    0.5770 hc        1 E35      0.049033
     15 H2         -0.3580   -0.0370   -0.9460 hc        1 E35      0.049033
     16 H3         -0.3230   -0.8550    0.6790 hc        1 E35      0.049033
     17 H4          2.0070    0.7890   -0.5890 h1        1 E35      0.052700
     18 H5          1.9230   -1.0330   -0.4860 h1        1 E35      0.052700
     19 H6          5.9650   -0.1580    2.2790 ha        1 E35      0.168500
     20 H7          7.5680   -0.1420    3.9370 ho        1 E35      0.425500
     21 H8          5.2290    0.1290    6.5540 ha        1 E35      0.157000
     22 H9          2.9900    0.2740    7.1010 ho        1 E35      0.425500
     23 H10         1.8940    0.1340    3.7520 ha        1 E35      0.168500
@<TRIPOS>BOND
     1    1    2 1   
     2    1   14 1   
     3    1   15 1   
     4    1   16 1   
     5    2    3 1   
     6    2   17 1   
     7    2   18 1   
     8    3    4 1   
     9    4    5 2   
    10    4    6 1   
    11    6    7 ar  
    12    6   13 ar  
    13    7    8 ar  
    14    7   19 1   
    15    8    9 1   
    16    8   10 ar  
    17    9   20 1   
    18   10   11 ar  
    19   10   21 1   
    20   11   12 1   
    21   11   13 ar  
    22   12   22 1   
    23   13   23 1   
@<TRIPOS>SUBSTRUCTURE
     1 E35         1 TEMP              0 ****  ****    0 ROOT
