@<TRIPOS>MOLECULE
molecule
   23    23     1     0     0
SMALL
bcc


@<TRIPOS>ATOM
      1 C01          0.0000     0.0000     0.0000 c3         1 E35      -0.096100
      2 C02          1.5290     0.0000     0.0000 c3         1 E35       0.148400
      3 O03          2.0140     0.0000     1.3690 os         1 E35      -0.429900
      4 C04          3.3490     0.0010     1.5450 c          1 E35       0.650700
      5 O05          4.0890     0.0010     0.5820 o          1 E35      -0.546000
      6 C06          3.9140     0.0010     2.9120 ca         1 E35      -0.107600
      7 C07          5.2980     0.0010     3.0960 ca         1 E35      -0.109000
      8 C08          5.8220     0.0010     4.3770 ca         1 E35       0.103100
      9 O09          7.1690     0.0020     4.5590 oh         1 E35      -0.514600
     10 C10          4.9750     0.0020     5.4760 ca         1 E35      -0.152000
     11 C11          3.5990     0.0020     5.2970 ca         1 E35       0.103100
     12 O12          2.7750     0.0030     6.3770 oh         1 E35      -0.514600
     13 C13          3.0650     0.0070     4.0200 ca         1 E35      -0.109000
     14 H1          -0.3610     0.8840     0.5110 hc         1 E35       0.048033
     15 H2          -0.3610     0.0010    -1.0210 hc         1 E35       0.048033
     16 H3          -0.3610    -0.8850     0.5100 hc         1 E35       0.048033
     17 H4           1.8900    -0.8840    -0.5110 h1         1 E35       0.050700
     18 H5           1.8900     0.8840    -0.5110 h1         1 E35       0.050700
     19 H6           5.9590     0.0690     2.2410 ha         1 E35       0.165000
     20 H7           7.4830    -0.8860     4.5930 ho         1 E35       0.422000
     21 H8           5.3890     0.0020     6.4780 ha         1 E35       0.154000
     22 H9           2.5810    -0.8860     6.6260 ho         1 E35       0.422000
     23 H10          1.9910     0.0070     3.8810 ha         1 E35       0.165000
@<TRIPOS>BOND
     1    12    11 1
     2    10    11 ar
     3    10     8 ar
     4    11    13 ar
     5     9     8 1
     6     8     7 ar
     7    13     6 ar
     8     7     6 ar
     9     6     4 1
    10     4     5 2
    11     4     3 1
    12     1     2 1
    13     3     2 1
    14     1    14 1
    15     1    15 1
    16     1    16 1
    17     2    17 1
    18     2    18 1
    19     7    19 1
    20     9    20 1
    21    10    21 1
    22    12    22 1
    23    13    23 1
@<TRIPOS>SUBSTRUCTURE
     1 E35         1 TEMP              0 ****  ****    0 ROOT
