@<TRIPOS>MOLECULE
E36
   43    46     1     0     0
SMALL
bcc


@<TRIPOS>ATOM
      1 O1           0.0000     0.0000     0.0000 os         1 E36      -0.297900
      2 C2           1.4310     0.0000     0.0000 c3         1 E36       0.170400
      3 C3           1.9120     0.0000     1.4570 c3         1 E36       0.171400
      4 O4           1.4060     1.1760     2.0960 os         1 E36      -0.296900
      5 C5           0.0900     1.4670     1.8910 ca         1 E36       0.101100
      6 C6          -0.6130     0.8810     0.8410 ca         1 E36       0.076100
      7 C7          -1.9450     1.1860     0.6380 ca         1 E36      -0.064000
      8 C8          -2.5930     2.0850     1.4900 ca         1 E36       0.076400
      9 N9          -3.8620     2.5690     1.5440 nc         1 E36      -0.555100
     10 C10         -3.9730     3.4020     2.5500 cd         1 E36       0.236700
     11 N11         -2.7770     3.5010     3.2030 na         1 E36       0.318700
     12 C12         -1.8800     2.6710     2.5480 ca         1 E36      -0.265200
     13 C13         -0.5430     2.3580     2.7410 ca         1 E36      -0.098000
     14 S14         -5.4440     4.2650     2.9910 ss         1 E36      -0.229300
     15 C15         -6.5670     3.6480     1.7130 c3         1 E36      -0.008300
     16 C16         -7.9270     4.2680     1.8980 c          1 E36       0.624700
     17 O17         -8.1190     5.0520     2.8040 o          1 E36      -0.500100
     18 C18         -9.0230     3.9250     0.9790 ca         1 E36      -0.180600
     19 C19        -10.2880     4.5000     1.1480 ca         1 E36       0.090000
     20 C20        -11.3090     4.1740     0.2810 ca         1 E36      -0.231500
     21 C21        -11.0870     3.2790    -0.7520 ca         1 E36       0.035400
     22 C22         -9.8370     2.7060    -0.9240 ca         1 E36      -0.099000
     23 C23         -8.8050     3.0270    -0.0710 ca         1 E36       0.039000
     24 S24        -12.9030     4.8960     0.4910 sy         1 E36       0.941200
     25 O25        -13.8390     3.8280     0.4340 o          1 E36      -0.487300
     26 Cl26       -12.3810     2.8740    -1.8370 cl         1 E36       0.029600
     27 O27        -12.8000     5.7800     1.5990 o          1 E36      -0.487300
     28 N28        -13.1920     5.8420    -0.8370 nz         1 E36      -0.145500
     29 H2           1.7960     0.8870    -0.5030 h1         1 E36       0.028200
     30 H2A          1.7950    -0.8880    -0.5030 h1         1 E36       0.028200
     31 H3           1.5360    -0.8800     1.9640 h1         1 E36       0.028700
     32 H3A          2.9950     0.0090     1.4840 h1         1 E36       0.028700
     33 H7          -2.4940     0.7110    -0.1660 ha         1 E36       0.122000
     34 HN11        -2.5840     4.0660     4.0060 hn         1 E36       0.135700
     35 H13          0.0100     2.8240     3.5480 ha         1 E36       0.120000
     36 H15         -6.1810     3.9100     0.7360 h1         1 E36       0.074200
     37 H15A        -6.6470     2.5710     1.7930 h1         1 E36       0.074200
     38 H19        -10.4850     5.1330     2.0040 ha         1 E36       0.160000
     39 H22         -9.6720     2.0050    -1.7340 ha         1 E36       0.144000
     40 H23         -7.8470     2.5290    -0.1690 ha         1 E36       0.139000
     41 HN28       -12.3620     6.3520    -1.0700 hn         1 E36       0.317800
     42 HN2A       -13.9320     6.4850    -0.6340 hn         1 E36       0.317800
     43 H283       -13.4550     5.2620    -1.6090 hn         1 E36       0.317800
@<TRIPOS>BOND
     1     1     2 1   
     2     1     6 1   
     3     2     3 1   
     4     2    29 1   
     5     2    30 1   
     6     3     4 1   
     7     3    31 1   
     8     3    32 1   
     9     4     5 1   
    10     5     6 ar  
    11     5    13 ar  
    12     6     7 ar  
    13     7     8 ar  
    14     7    33 1   
    15     8     9 1   
    16     8    12 ar  
    17     9    10 2   
    18    10    11 1   
    19    10    14 1   
    20    11    12 1   
    21    11    34 1   
    22    12    13 ar  
    23    13    35 1   
    24    14    15 1   
    25    15    16 1   
    26    15    36 1   
    27    15    37 1   
    28    16    17 2   
    29    16    18 1   
    30    18    19 ar  
    31    18    23 ar  
    32    19    20 ar  
    33    19    38 1   
    34    20    21 ar  
    35    20    24 1   
    36    21    22 ar  
    37    21    26 1   
    38    22    23 ar  
    39    22    39 1   
    40    23    40 1   
    41    24    25 2   
    42    24    27 2   
    43    24    28 1   
    44    28    41 1   
    45    28    42 1   
    46    28    43 1   
@<TRIPOS>SUBSTRUCTURE
     1 E36         1 TEMP              0 ****  ****    0 ROOT
