@<TRIPOS>MOLECULE
molecule
   43    46     1     0     0
SMALL
bcc


@<TRIPOS>ATOM
      1 O1           0.0000     0.0000     0.0000 os         1 E36      -0.319900
      2 C2           1.4310     0.0000     0.0000 c3         1 E36       0.099400
      3 C3           1.9120     0.0000     1.4570 c3         1 E36       0.099400
      4 O4           1.4060     1.1760     2.0960 os         1 E36      -0.316900
      5 C5           0.0900     1.4670     1.8910 ca         1 E36       0.097100
      6 C6          -0.6130     0.8810     0.8410 ca         1 E36       0.065100
      7 C7          -1.9450     1.1860     0.6380 ca         1 E36      -0.084000
      8 C8          -2.5930     2.0850     1.4900 ca         1 E36       0.096400
      9 N9          -3.8620     2.5690     1.5440 nc         1 E36      -0.630100
     10 C10         -3.9730     3.4020     2.5500 cd         1 E36       0.417700
     11 N11         -2.7770     3.5010     3.2030 na         1 E36      -0.239300
     12 C12         -1.8800     2.6710     2.5480 ca         1 E36      -0.075200
     13 C13         -0.5430     2.3580     2.7410 ca         1 E36      -0.134000
     14 S14         -5.4440     4.2650     2.9910 ss         1 E36      -0.099300
     15 C15         -6.5670     3.6480     1.7130 c3         1 E36      -0.112300
     16 C16         -7.9270     4.2680     1.8980 c          1 E36       0.579700
     17 O17         -8.1190     5.0520     2.8040 o          1 E36      -0.478100
     18 C18         -9.0230     3.9250     0.9790 ca         1 E36      -0.166600
     19 C19        -10.2880     4.5000     1.1480 ca         1 E36       0.044000
     20 C20        -11.3090     4.1740     0.2810 ca         1 E36      -0.348500
     21 C21        -11.0870     3.2790    -0.7520 ca         1 E36       0.104400
     22 C22         -9.8370     2.7060    -0.9240 ca         1 E36      -0.121000
     23 C23         -8.8050     3.0270    -0.0710 ca         1 E36       0.005000
     24 S24        -12.9030     4.8960     0.4910 sy         1 E36       1.241200
     25 O25        -13.8390     3.8280     0.4340 o          1 E36      -0.506300
     26 Cl26       -12.3810     2.8740    -1.8370 cl         1 E36      -0.072400
     27 O27        -12.8000     5.7800     1.5990 o          1 E36      -0.506300
     28 N28        -13.1920     5.8420    -0.8370 nz         1 E36      -0.811500
     29 H2           1.7960     0.8870    -0.5030 h1         1 E36       0.072200
     30 H2A          1.7950    -0.8880    -0.5030 h1         1 E36       0.072200
     31 H3           1.5360    -0.8800     1.9640 h1         1 E36       0.073700
     32 H3A          2.9950     0.0090     1.4840 h1         1 E36       0.073700
     33 H7          -2.4940     0.7110    -0.1660 ha         1 E36       0.156000
     34 HN11        -2.5840     4.0660     4.0060 hn         1 E36       0.315700
     35 H13          0.0100     2.8240     3.5480 ha         1 E36       0.150000
     36 H15         -6.1810     3.9100     0.7360 h1         1 E36       0.106700
     37 H15A        -6.6470     2.5710     1.7930 h1         1 E36       0.106700
     38 H19        -10.4850     5.1330     2.0040 ha         1 E36       0.196000
     39 H22         -9.6720     2.0050    -1.7340 ha         1 E36       0.182000
     40 H23         -7.8470     2.5290    -0.1690 ha         1 E36       0.182000
     41 HN28       -12.3620     6.3520    -1.0700 hn         1 E36       0.495133
     42 HN2A       -13.9320     6.4850    -0.6340 hn         1 E36       0.495133
     43 H283       -13.4550     5.2620    -1.6090 hn         1 E36       0.495133
@<TRIPOS>BOND
     1     1     2 1
     2     1     6 1
     3     2     3 1
     4     3     4 1
     5     4     5 1
     6     5     6 ar
     7     5    13 ar
     8     6     7 ar
     9     7     8 ar
    10     8     9 1
    11     8    12 ar
    12     9    10 2
    13    10    11 1
    14    10    14 1
    15    11    12 1
    16    12    13 ar
    17    14    15 1
    18    15    16 1
    19    16    17 2
    20    16    18 1
    21    18    19 ar
    22    18    23 ar
    23    19    20 ar
    24    20    21 ar
    25    20    24 1
    26    21    22 ar
    27    21    26 1
    28    22    23 ar
    29    24    25 2
    30    24    27 2
    31    24    28 1
    32     2    29 1
    33     2    30 1
    34     3    31 1
    35     3    32 1
    36     7    33 1
    37    11    34 1
    38    13    35 1
    39    15    36 1
    40    15    37 1
    41    19    38 1
    42    22    39 1
    43    23    40 1
    44    28    41 1
    45    28    42 1
    46    43    28 1
@<TRIPOS>SUBSTRUCTURE
     1 E36         1 TEMP              0 ****  ****    0 ROOT
