@<TRIPOS>MOLECULE
E37
   49    51     1     0     0
SMALL
bcc


@<TRIPOS>ATOM
      1 O1           0.0000     0.0000     0.0000 o          1 E37      -0.429100
      2 C6           1.2130     0.0000     0.0000 c          1 E37       0.304100
      3 N1           1.8870     0.0000     1.1680 nz         1 E37       0.194600
      4 C7           1.9660    -0.0070    -1.3040 c3         1 E37      -0.059300
      5 C8           2.8460     1.2420    -1.3920 c3         1 E37      -0.024400
      6 C9           3.7030     1.1740    -2.6570 c3         1 E37      -0.135400
      7 C10          4.5700     2.4040    -2.7440 c          1 E37       0.974600
      8 O4E          5.4110     2.5620    -3.7770 o          1 E37      -0.873800
      9 O4           4.5080     3.2480    -1.8810 o          1 E37      -0.873800
     10 N2           1.0140    -0.0120    -2.4180 ns         1 E37      -0.162900
     11 C11          0.4990    -1.1770    -2.8590 c          1 E37       0.618700
     12 O2           0.8240    -2.2240    -2.3310 o          1 E37      -0.667100
     13 C27         -0.4600    -1.1830    -3.9800 ca         1 E37      -0.177600
     14 C28         -0.8290     0.0190    -4.5900 ca         1 E37      -0.041500
     15 C15         -1.7170     0.0150    -5.6280 ca         1 E37      -0.109000
     16 C16         -2.2560    -1.1940    -6.0810 ca         1 E37       0.046000
     17 C17         -1.8860    -2.3960    -5.4710 ca         1 E37      -0.109000
     18 C14         -0.9950    -2.3920    -4.4370 ca         1 E37      -0.041500
     19 C18         -3.2140    -1.1990    -7.2030 cc         1 E37       0.039900
     20 C19         -3.8010    -2.2980    -7.7190 cd         1 E37      -0.103000
     21 C20         -4.6640    -2.0230    -8.7730 cd         1 E37      -0.057000
     22 C29         -4.7620    -0.7170    -9.0880 cc         1 E37      -0.018100
     23 S7          -3.7730     0.2260    -8.0660 ss         1 E37      -0.209800
     24 C21         -5.4180    -3.0810    -9.4910 ca         1 E37      -0.018000
     25 C22         -6.2700    -2.7420   -10.5410 ca         1 E37      -0.096000
     26 C23         -6.9670    -3.7300   -11.2050 ca         1 E37      -0.096500
     27 C24         -6.8220    -5.0540   -10.8320 ca         1 E37      -0.099000
     28 C25         -5.9770    -5.3950    -9.7910 ca         1 E37      -0.096500
     29 C26         -5.2700    -4.4160    -9.1230 ca         1 E37      -0.096000
     30 H1           2.7680    -0.4570     1.0440 hn         1 E37       0.244800
     31 H2           2.0390     0.9430     1.4650 hn         1 E37       0.244800
     32 H3           2.5890    -0.8920    -1.3570 h1         1 E37       0.090700
     33 H4           2.2180     2.1240    -1.4280 hc         1 E37       0.026700
     34 H5           3.4890     1.2920    -0.5220 hc         1 E37       0.026700
     35 H6           3.0600     1.1250    -3.5270 hc         1 E37       0.019700
     36 H7           4.3310     0.2920    -2.6220 hc         1 E37       0.019700
     37 H9           0.7170     0.8520    -2.8260 hn         1 E37       0.209500
     38 H10         -0.4120     0.9550    -4.2390 ha         1 E37       0.115000
     39 H11         -2.0030     0.9470    -6.1000 ha         1 E37       0.120500
     40 H12         -2.3020    -3.3330    -5.8240 ha         1 E37       0.120500
     41 H13         -0.7080    -3.3230    -3.9650 ha         1 E37       0.115000
     42 H14         -3.6170    -3.2990    -7.3490 ha         1 E37       0.133000
     43 H15         -5.3860    -0.3200    -9.8790 h4         1 E37       0.159000
     44 H16         -6.3850    -1.7050   -10.8340 ha         1 E37       0.107500
     45 H17         -7.6300    -3.4680   -12.0210 ha         1 E37       0.103500
     46 H18         -7.3730    -5.8260   -11.3550 ha         1 E37       0.103000
     47 H19         -5.8650    -6.4340    -9.5050 ha         1 E37       0.103500
     48 H20         -4.6090    -4.6850    -8.3080 ha         1 E37       0.107500
     49 H131         1.3560    -0.4910     1.8600 hn         1 E37       0.244800
@<TRIPOS>BOND
     1     1     2 2   
     2     2     3 1   
     3     2     4 1   
     4     3    30 1   
     5     3    31 1   
     6     3    49 1   
     7     4     5 1   
     8     4    10 1   
     9     4    32 1   
    10     5     6 1   
    11     5    33 1   
    12     5    34 1   
    13     6     7 1   
    14     6    35 1   
    15     6    36 1   
    16     7     8 1   
    17     7     9 1   
    18    10    11 1   
    19    10    37 1   
    20    11    12 2   
    21    11    13 1   
    22    13    14 ar  
    23    13    18 ar  
    24    14    15 ar  
    25    14    38 1   
    26    15    16 ar  
    27    15    39 1   
    28    16    17 ar  
    29    16    19 1   
    30    17    18 ar  
    31    17    40 1   
    32    18    41 1   
    33    19    20 2   
    34    19    23 1   
    35    20    21 1   
    36    20    42 1   
    37    21    22 2   
    38    21    24 1   
    39    22    23 1   
    40    22    43 1   
    41    24    25 ar  
    42    24    29 ar  
    43    25    26 ar  
    44    25    44 1   
    45    26    27 ar  
    46    26    45 1   
    47    27    28 ar  
    48    27    46 1   
    49    28    29 ar  
    50    28    47 1   
    51    29    48 1   
@<TRIPOS>SUBSTRUCTURE
     1 E37         1 TEMP              0 ****  ****    0 ROOT
