@<TRIPOS>MOLECULE
molecule
   37    39     1     0     0
SMALL
bcc


@<TRIPOS>ATOM
      1 N1           0.0000     0.0000     0.0000 na         1 E38      -0.240300
      2 C2           1.3660     0.0000     0.0000 cc         1 E38       0.423700
      3 N3           1.8110     0.0000     1.2320 nd         1 E38      -0.630100
      4 C4           0.7620    -0.0010     2.0960 ca         1 E38       0.095400
      5 C5          -0.4100    -0.0010     1.3230 ca         1 E38      -0.072200
      6 C6          -1.6500    -0.0020     1.9450 ca         1 E38      -0.122000
      7 C7          -1.7270    -0.0030     3.3230 ca         1 E38      -0.083000
      8 C8          -0.5720    -0.0030     4.0920 ca         1 E38      -0.029900
      9 C9           0.6680    -0.0020     3.4900 ca         1 E38      -0.050000
     10 S10          2.3780     0.0010    -1.4420 ss         1 E38      -0.095300
     11 C11          4.0180     0.0010    -0.6750 c3         1 E38      -0.113300
     12 C12          5.0750     0.0020    -1.7500 c          1 E38       0.580700
     13 O13          4.7520     0.0030    -2.9180 o          1 E38      -0.478100
     14 Br14        -0.7000    -0.0040     5.9790 br         1 E38      -0.076100
     15 C15          6.4990     0.0030    -1.3800 ca         1 E38      -0.168600
     16 C16          7.4830     0.0090    -2.3740 ca         1 E38       0.046000
     17 C17          8.8150     0.0110    -2.0210 ca         1 E38      -0.349500
     18 C18          9.1810     0.0050    -0.6850 ca         1 E38       0.104400
     19 C19          8.2120    -0.0010     0.3050 ca         1 E38      -0.121000
     20 C20          6.8760     0.0030    -0.0330 ca         1 E38       0.006000
     21 S21         10.0560     0.0180    -3.2710 sy         1 E38       1.244200
     22 O22         10.9810    -1.0030    -2.9250 o          1 E38      -0.506300
     23 Cl23        10.8610     0.0060    -0.2480 cl         1 E38      -0.070400
     24 O24          9.3720     0.0560    -4.5160 o          1 E38      -0.506300
     25 N25         10.8730     1.4520    -3.1430 nz         1 E38      -0.811500
     26 H6          -2.5550    -0.0020     1.3500 ha         1 E38       0.141000
     27 H7          -2.6960    -0.0040     3.8070 ha         1 E38       0.156000
     28 H9           1.5660    -0.0020     4.0960 ha         1 E38       0.153000
     29 H11          4.1290     0.8860    -0.0590 h1         1 E38       0.106700
     30 H11A         4.1290    -0.8840    -0.0600 h1         1 E38       0.106700
     31 H16          7.1980     0.0140    -3.4200 ha         1 E38       0.195000
     32 H19          8.5050    -0.0030     1.3480 ha         1 E38       0.182000
     33 H20          6.1190    -0.0020     0.7430 ha         1 E38       0.181000
     34 HN25        11.3780     1.6260    -3.9900 hn         1 E38       0.495133
     35 HN2A        11.5150     1.4030    -2.3770 hn         1 E38       0.495133
     36 HN1         -0.5940    -0.0000    -0.8060 hn         1 E38       0.317700
     37 H253        10.2200     2.1970    -2.9970 hn         1 E38       0.495133
@<TRIPOS>BOND
     1     1     2 1
     2     1     5 1
     3    10     2 1
     4     2     3 2
     5     3     4 1
     6     5     4 ar
     7     4     9 ar
     8     6     5 ar
     9     6     7 ar
    10     6    26 1
    11     7     8 ar
    12     7    27 1
    13     8     9 ar
    14     8    14 1
    15     9    28 1
    16    10    11 1
    17    11    12 1
    18    11    29 1
    19    11    30 1
    20    13    12 2
    21    12    15 1
    22    15    20 ar
    23    15    16 ar
    24    16    17 ar
    25    16    31 1
    26    17    18 ar
    27    17    21 1
    28    19    18 ar
    29    18    23 1
    30    20    19 ar
    31    19    32 1
    32    20    33 1
    33    25    21 1
    34    21    22 2
    35    21    24 2
    36    25    34 1
    37    25    35 1
    38     1    36 1
    39    37    25 1
@<TRIPOS>SUBSTRUCTURE
     1 E38         1 TEMP              0 ****  ****    0 ROOT
