@<TRIPOS>MOLECULE
molecule
   45    49     1     0     0
SMALL
bcc


@<TRIPOS>ATOM
      1 N3           0.0000     0.0000     0.0000 n          1 E3A      -0.487800
      2 C4           2.4120    -2.8810     9.3640 ca         1 E3A      -0.146000
      3 N2           1.0310    -1.6690     4.8280 nc         1 E3A      -0.493800
      4 C7           3.1800    -1.5080     5.3870 cc         1 E3A      -0.106300
      5 C6           1.6840    -2.3520     7.1410 ca         1 E3A       0.025800
      6 C9           1.6670    -1.2080     3.7820 cd         1 E3A       0.375600
      7 C13          1.4820     0.0000     0.0000 c3         1 E3A       0.142000
      8 C8           3.0230    -1.0960     4.1070 cd         1 E3A      -0.335300
      9 C1           0.4030    -2.7830     7.4590 ca         1 E3A      -0.119000
     10 C2           0.1270    -3.2500     8.7290 ca         1 E3A      -0.146000
     11 C3           1.1320    -3.3040     9.6800 ca         1 E3A       0.120900
     12 C5           2.6880    -2.4020     8.0990 ca         1 E3A      -0.119000
     13 N1           1.9630    -1.8670     5.8560 na         1 E3A       0.151300
     14 C10          1.0450    -0.8570     2.4550 cx         1 E3A      -0.079000
     15 C11          0.6530     0.6040     2.2230 cx         1 E3A      -0.168700
     16 C12          1.8720     0.0000     1.4930 cx         1 E3A      -0.168700
     17 C14         -0.3660     0.9150     1.1060 c3         1 E3A       0.142000
     18 C15         -0.8270    -0.6730    -0.8240 c          1 E3A       0.733100
     19 O1          -0.3690    -1.3870    -1.6940 o          1 E3A      -0.583000
     20 F1           0.8640    -3.7710    10.9200 f          1 E3A      -0.137900
     21 H2           4.1120    -1.5420     5.9370 h4         1 E3A       0.174000
     22 H3           1.8580     0.8920    -0.4870 h1         1 E3A       0.067950
     23 H4           1.8580    -0.8920    -0.4870 h1         1 E3A       0.067950
     24 H5           3.8090    -0.7430     3.4500 ha         1 E3A       0.159000
     25 H6          -0.3830    -2.7430     6.7140 ha         1 E3A       0.154500
     26 H7          -0.8730    -3.5840     8.9790 ha         1 E3A       0.152500
     27 H8           3.6890    -2.0690     7.8520 ha         1 E3A       0.154500
     28 H9           0.3980    -1.5810     1.9740 hc         1 E3A       0.115700
     29 H10          0.9450     1.3610     2.9410 hc         1 E3A       0.104200
     30 H11          2.8030     0.4410     1.8280 hc         1 E3A       0.104200
     31 H12         -1.3730     0.7090     1.4470 h1         1 E3A       0.067950
     32 H13         -0.2720     1.9460     0.7880 h1         1 E3A       0.067950
     33 O2          -2.1590    -0.5570    -0.6810 os         1 E3A      -0.159200
     34 N4          -2.8550    -1.1900    -1.4540 n          1 E3A      -0.299900
     35 C17         -3.2690    -2.4390    -1.2010 c          1 E3A       0.694500
     36 C18         -4.1090    -2.9290    -2.3590 c3         1 E3A      -0.167400
     37 C19         -4.1090    -1.7360    -3.3370 c3         1 E3A      -0.167400
     38 C20         -3.2740    -0.6940    -2.6250 c          1 E3A       0.694500
     39 O4          -3.0110    -3.0750    -0.2020 o          1 E3A      -0.554000
     40 O3          -3.0180     0.4120    -3.0520 o          1 E3A      -0.554000
     41 H14         -3.6510    -3.7970    -2.8190 hc         1 E3A       0.092450
     42 H15         -5.1170    -3.1510    -2.0300 hc         1 E3A       0.092450
     43 H16         -3.6480    -2.0150    -4.2770 hc         1 E3A       0.092450
     44 H17         -5.1180    -1.3720    -3.4930 hc         1 E3A       0.092450
     45 H1           3.1960    -2.9220    10.1100 ha         1 E3A       0.152500
@<TRIPOS>BOND
     1    19    18 2
     2    10     9 ar
     3    10    11 ar
     4    20    11 1
     5    18     1 1
     6     9     5 ar
     7    11     2 ar
     8    14     6 1
     9    14    15 1
    10    14    16 1
    11    17     1 1
    12    17    15 1
    13     3     6 2
    14     3    13 1
    15     1     7 1
    16     5    13 1
    17     5    12 ar
    18     6     8 1
    19     2    12 ar
    20    13     4 1
    21     7    16 1
    22    15    16 1
    23     8     4 2
    24     2    45 1
    25     4    21 1
    26     7    22 1
    27     7    23 1
    28     8    24 1
    29     9    25 1
    30    10    26 1
    31    12    27 1
    32    14    28 1
    33    15    29 1
    34    16    30 1
    35    17    31 1
    36    17    32 1
    37    18    33 1
    38    33    34 1
    39    34    35 1
    40    35    36 1
    41    36    37 1
    42    37    38 1
    43    38    34 1
    44    35    39 2
    45    38    40 2
    46    36    41 1
    47    36    42 1
    48    37    43 1
    49    37    44 1
@<TRIPOS>SUBSTRUCTURE
     1 E3A         1 TEMP              0 ****  ****    0 ROOT
