@<TRIPOS>MOLECULE
E3A
   45    49     1     0     0
SMALL
bcc


@<TRIPOS>ATOM
      1 N3           0.0000     0.0000     0.0000 n          1 E3A      -0.138800
      2 C4           2.4120    -2.8810     9.3640 ca         1 E3A      -0.113000
      3 N2           1.0310    -1.6690     4.8280 nc         1 E3A      -0.643800
      4 C7           3.1800    -1.5080     5.3870 cc         1 E3A      -0.264300
      5 C6           1.6840    -2.3520     7.1410 ca         1 E3A      -0.154200
      6 C9           1.6670    -1.2080     3.7820 cd         1 E3A       0.396600
      7 C13          1.4820     0.0000     0.0000 c3         1 E3A       0.101000
      8 C8           3.0230    -1.0960     4.1070 cd         1 E3A      -0.313300
      9 C1           0.4030    -2.7830     7.4590 ca         1 E3A      -0.081000
     10 C2           0.1270    -3.2500     8.7290 ca         1 E3A      -0.113000
     11 C3           1.1320    -3.3040     9.6800 ca         1 E3A       0.102900
     12 C5           2.6880    -2.4020     8.0990 ca         1 E3A      -0.081000
     13 N1           1.9630    -1.8670     5.8560 na         1 E3A       0.629300
     14 C10          1.0450    -0.8570     2.4550 cx         1 E3A      -0.034000
     15 C11          0.6530     0.6040     2.2230 cx         1 E3A      -0.155700
     16 C12          1.8720     0.0000     1.4930 cx         1 E3A      -0.155700
     17 C14         -0.3660     0.9150     1.1060 c3         1 E3A       0.101000
     18 C15         -0.8270    -0.6730    -0.8240 c          1 E3A       0.678100
     19 O1          -0.3690    -1.3870    -1.6940 o          1 E3A      -0.638000
     20 F1           0.8640    -3.7710    10.9200 f          1 E3A      -0.125900
     21 H2           4.1120    -1.5420     5.9370 h4         1 E3A       0.150000
     22 H3           1.8580     0.8920    -0.4870 h1         1 E3A       0.032950
     23 H4           1.8580    -0.8920    -0.4870 h1         1 E3A       0.032950
     24 H5           3.8090    -0.7430     3.4500 ha         1 E3A       0.139000
     25 H6          -0.3830    -2.7430     6.7140 ha         1 E3A       0.128000
     26 H7          -0.8730    -3.5840     8.9790 ha         1 E3A       0.124000
     27 H8           3.6890    -2.0690     7.8520 ha         1 E3A       0.128000
     28 H9           0.3980    -1.5810     1.9740 hc         1 E3A       0.075700
     29 H10          0.9450     1.3610     2.9410 hc         1 E3A       0.079700
     30 H11          2.8030     0.4410     1.8280 hc         1 E3A       0.079700
     31 H12         -1.3730     0.7090     1.4470 h1         1 E3A       0.032950
     32 H13         -0.2720     1.9460     0.7880 h1         1 E3A       0.032950
     33 O2          -2.1590    -0.5570    -0.6810 os         1 E3A      -0.254200
     34 N4          -2.8550    -1.1900    -1.4540 n          1 E3A       0.117100
     35 C17         -3.2690    -2.4390    -1.2010 c          1 E3A       0.593500
     36 C18         -4.1090    -2.9290    -2.3590 c3         1 E3A      -0.110900
     37 C19         -4.1090    -1.7360    -3.3370 c3         1 E3A      -0.110900
     38 C20         -3.2740    -0.6940    -2.6250 c          1 E3A       0.593500
     39 O4          -3.0110    -3.0750    -0.2020 o          1 E3A      -0.599500
     40 O3          -3.0180     0.4120    -3.0520 o          1 E3A      -0.599500
     41 H14         -3.6510    -3.7970    -2.8190 hc         1 E3A       0.053700
     42 H15         -5.1170    -3.1510    -2.0300 hc         1 E3A       0.053700
     43 H16         -3.6480    -2.0150    -4.2770 hc         1 E3A       0.053700
     44 H17         -5.1180    -1.3720    -3.4930 hc         1 E3A       0.053700
     45 H1           3.1960    -2.9220    10.1100 ha         1 E3A       0.124000
@<TRIPOS>BOND
     1     1     7 1   
     2     1    17 1   
     3     1    18 1   
     4     2    11 ar  
     5     2    12 ar  
     6     2    45 1   
     7     3     6 2   
     8     3    13 1   
     9     4     8 2   
    10     4    13 1   
    11     4    21 1   
    12     5     9 ar  
    13     5    12 ar  
    14     5    13 1   
    15     6     8 1   
    16     6    14 1   
    17     7    16 1   
    18     7    22 1   
    19     7    23 1   
    20     8    24 1   
    21     9    10 ar  
    22     9    25 1   
    23    10    11 ar  
    24    10    26 1   
    25    11    20 1   
    26    12    27 1   
    27    14    15 1   
    28    14    16 1   
    29    14    28 1   
    30    15    16 1   
    31    15    17 1   
    32    15    29 1   
    33    16    30 1   
    34    17    31 1   
    35    17    32 1   
    36    18    19 2   
    37    18    33 1   
    38    33    34 1   
    39    34    35 1   
    40    34    38 1   
    41    35    36 1   
    42    35    39 2   
    43    36    37 1   
    44    36    41 1   
    45    36    42 1   
    46    37    38 1   
    47    37    43 1   
    48    37    44 1   
    49    38    40 2   
@<TRIPOS>SUBSTRUCTURE
     1 E3A         1 TEMP              0 ****  ****    0 ROOT
