@<TRIPOS>MOLECULE
molecule
   49    51     1     0     0
SMALL
bcc


@<TRIPOS>ATOM
      1 CAA          0.0000     0.0000     0.0000 c3         1 E3B      -0.094100
      2 CAB          8.3790    -0.0130     1.5370 c3         1 E3B      -0.185100
      3 CAF          1.1070     0.9310     5.1800 ca         1 E3B      -0.106000
      4 CAG          1.9460     0.9070     4.0830 ca         1 E3B      -0.139000
      5 CAH          5.5080     0.0010     0.9710 ca         1 E3B      -0.030000
      6 CAI          1.2620     0.0050     6.1940 ca         1 E3B      -0.171000
      7 CAJ          4.1670     0.0000     0.6600 ca         1 E3B      -0.292000
      8 CAK          3.1110    -0.9850     5.0180 ca         1 E3B      -0.140000
      9 CAL          4.9660     0.0060     3.3330 ca         1 E3B      -0.015000
     10 CAM          1.5310     0.0000     0.0000 c3         1 E3B       0.154400
     11 CAN          2.8400    -4.2400     7.7360 c3         1 E3B      -0.082400
     12 CAO          2.4670    -3.2650     6.6170 c3         1 E3B       0.159800
     13 CAP          1.8730    -4.0610     8.9080 c3         1 E3B      -0.124400
     14 CAQ          1.5780    -1.6790     8.2200 c3         1 E3B       0.111800
     15 CAT          5.9200    -0.0000     2.3100 ca         1 E3B      -0.245600
     16 CAU          2.9540    -0.0520     3.9970 cp         1 E3B      -0.001000
     17 CAV          2.2610    -0.9580     6.1130 ca         1 E3B       0.089600
     18 CAW          3.2150     0.0000     1.6720 ca         1 E3B       0.240100
     19 CAX          3.6150     0.0000     3.0150 cp         1 E3B      -0.112000
     20 CAZ          1.9260    -2.6070     9.3860 c3         1 E3B       0.404600
     21 FAD          3.2140    -2.3140     9.8480 f          1 E3B      -0.231800
     22 FAE          1.0030    -2.4220    10.4220 f          1 E3B      -0.231800
     23 NAY          2.5340    -1.8890     7.1240 nh         1 E3B      -0.571000
     24 OAC          7.6500     0.3960     3.7450 o          1 E3B      -0.532100
     25 OAR          2.0060     0.0000     1.3480 os         1 E3B      -0.313900
     26 H1          -0.3610    -0.0880    -1.0180 hc         1 E3B       0.052700
     27 H2          -0.3610    -0.8370     0.5850 hc         1 E3B       0.052700
     28 H3          -0.3610     0.9250     0.4320 hc         1 E3B       0.052700
     29 H4           9.3720    -0.0170     1.9700 hc         1 E3B       0.059367
     30 H5           8.2470    -0.8970     0.9260 hc         1 E3B       0.059367
     31 H6           8.2560     0.8720     0.9240 hc         1 E3B       0.059367
     32 H7           0.3260     1.6790     5.2460 ha         1 E3B       0.128000
     33 H8           1.8220     1.6350     3.2900 ha         1 E3B       0.137000
     34 H9           6.2460    -0.0020     0.1790 ha         1 E3B       0.130000
     35 H10          0.6000     0.0260     7.0510 ha         1 E3B       0.131000
     36 H11          3.8530     0.0010    -0.3770 ha         1 E3B       0.136000
     37 H12          3.8910    -1.7340     4.9550 ha         1 E3B       0.143000
     38 H13          5.2800     0.0050     4.3690 ha         1 E3B       0.170000
     39 H14          1.8920     0.8850    -0.5110 h1         1 E3B       0.041700
     40 H15          1.8920    -0.8850    -0.5110 h1         1 E3B       0.041700
     41 H16          2.7740    -5.2560     7.3660 hc         1 E3B       0.063200
     42 H17          3.8510    -4.0370     8.0690 hc         1 E3B       0.063200
     43 H18          3.1620    -3.3800     5.7940 h1         1 E3B       0.047200
     44 H19          1.4600    -3.4750     6.2780 h1         1 E3B       0.047200
     45 H20          0.8660    -4.2980     8.5840 hc         1 E3B       0.066200
     46 H21          2.1620    -4.7180     9.7190 hc         1 E3B       0.066200
     47 H22          0.5770    -1.9000     7.8710 h1         1 E3B       0.066200
     48 H23          1.6320    -0.6490     8.5520 h1         1 E3B       0.066200
     49 CAS          7.3510    -0.0070     2.6400 c          1 E3B       0.575700
@<TRIPOS>BOND
     1     1    10 1
     2    10    25 1
     3     7     5 ar
     4     7    18 ar
     5     5    15 ar
     6    25    18 1
     7    18    19 ar
     8    24    49 2
     9    15    49 1
    10    15     9 ar
    11    49     2 1
    12    19     9 ar
    13    19    16 1
    14    16     8 ar
    15    16     4 ar
    16     8    17 ar
    17    22    20 1
    18    14    20 1
    19    14    23 1
    20     4     3 ar
    21    17    23 1
    22    17     6 ar
    23    20    13 1
    24    20    21 1
    25    23    12 1
    26    13    11 1
    27    12    11 1
    28     3     6 ar
    29     1    26 1
    30     1    27 1
    31     1    28 1
    32     2    29 1
    33     2    30 1
    34     2    31 1
    35     3    32 1
    36     4    33 1
    37     5    34 1
    38     6    35 1
    39     7    36 1
    40     8    37 1
    41     9    38 1
    42    10    39 1
    43    10    40 1
    44    11    41 1
    45    11    42 1
    46    12    43 1
    47    12    44 1
    48    13    45 1
    49    13    46 1
    50    14    47 1
    51    14    48 1
@<TRIPOS>SUBSTRUCTURE
     1 E3B         1 TEMP              0 ****  ****    0 ROOT
