@<TRIPOS>MOLECULE
E3E
   37    41     1     0     0
SMALL
bcc


@<TRIPOS>ATOM
      1 O            0.0000     0.0000     0.0000 o          1 E3E      -0.619500
      2 C14          1.2170     0.0000     0.0000 c          1 E3E       0.546000
      3 C15          1.9580     0.0000     1.2710 cc         1 E3E       0.117000
      4 N3           3.3270     0.0000     1.2480 na         1 E3E       0.463000
      5 C17          3.7480    -0.0000     2.5400 cc         1 E3E      -0.432600
      6 C16          2.6390    -0.0010     3.3200 cd         1 E3E       0.325200
      7 N2           1.5690    -0.0010     2.5290 nd         1 E3E      -0.519000
      8 C2           4.0040     0.0010     0.0300 ca         1 E3E      -0.203200
      9 C1           5.3930     0.0010     0.0120 ca         1 E3E      -0.107000
     10 N1           1.8950    -0.0050    -1.1650 n          1 E3E       0.079000
     11 C11          1.1620    -0.0110    -2.4330 cx         1 E3E      -0.082300
     12 C13          1.3150    -1.2390    -3.3320 cx         1 E3E      -0.063900
     13 C12          0.0060    -1.0020    -2.5770 cx         1 E3E      -0.063900
     14 C3           3.2900     0.0020    -1.1700 ca         1 E3E      -0.063400
     15 C4           3.9710     0.0030    -2.3790 ca         1 E3E      -0.110000
     16 C5           5.3620     0.0040    -2.3930 cp         1 E3E      -0.022000
     17 C            6.0720     0.0020    -1.1900 ca         1 E3E       0.107900
     18 F            7.4230     0.0030    -1.2020 f          1 E3E      -0.118900
     19 C6           6.0920     0.0050    -3.6840 cp         1 E3E      -0.018000
     20 C10          5.7700    -0.9090    -4.6920 ca         1 E3E      -0.205300
     21 C9           6.4730    -0.8730    -5.8780 ca         1 E3E       0.408200
     22 N            7.4370     0.0090    -6.0670 nb         1 E3E      -0.575000
     23 C8           7.7720     0.8880    -5.1420 ca         1 E3E       0.408200
     24 C7           7.1160     0.9240    -3.9290 ca         1 E3E      -0.205300
     25 H1           4.7760    -0.0000     2.8810 h4         1 E3E       0.158000
     26 H2           2.6270    -0.0000     4.4030 h4         1 E3E       0.010100
     27 H3           5.9450    -0.0000     0.9440 ha         1 E3E       0.134000
     28 H4           1.0270     0.9240    -2.9630 h1         1 E3E       0.075700
     29 H5           1.9430    -2.0300    -2.9410 hc         1 E3E       0.057450
     30 H6           1.2810    -1.0460    -4.3970 hc         1 E3E       0.057450
     31 H7          -0.1660    -1.6470    -1.7250 hc         1 E3E       0.057450
     32 H8          -0.8270    -0.6630    -3.1820 hc         1 E3E       0.057450
     33 H9           3.4190     0.0050    -3.3110 ha         1 E3E       0.142000
     34 H10          4.9800    -1.6360    -4.5430 ha         1 E3E       0.120000
     35 H11          6.2310    -1.5770    -6.6640 h4         1 E3E      -0.017400
     36 H12          8.5680     1.5950    -5.3400 h4         1 E3E      -0.017400
     37 H13          7.3960     1.6490    -3.1740 ha         1 E3E       0.120000
@<TRIPOS>BOND
     1     1     2 2   
     2     2     3 1   
     3     2    10 1   
     4     3     4 1   
     5     3     7 2   
     6     4     5 1   
     7     4     8 1   
     8     5     6 2   
     9     5    25 1   
    10     6     7 1   
    11     6    26 1   
    12     8     9 ar  
    13     8    14 ar  
    14     9    17 ar  
    15     9    27 1   
    16    10    11 1   
    17    10    14 1   
    18    11    12 1   
    19    11    13 1   
    20    11    28 1   
    21    12    13 1   
    22    12    29 1   
    23    12    30 1   
    24    13    31 1   
    25    13    32 1   
    26    14    15 ar  
    27    15    16 ar  
    28    15    33 1   
    29    16    17 ar  
    30    16    19 1   
    31    17    18 1   
    32    19    20 ar  
    33    19    24 ar  
    34    20    21 ar  
    35    20    34 1   
    36    21    22 ar  
    37    21    35 1   
    38    22    23 ar  
    39    23    24 ar  
    40    23    36 1   
    41    24    37 1   
@<TRIPOS>SUBSTRUCTURE
     1 E3E         1 TEMP              0 ****  ****    0 ROOT
