@<TRIPOS>MOLECULE
E3G
   61    65     1     0     0
SMALL
bcc


@<TRIPOS>ATOM
      1 C1'         0.1330    0.0540    0.1500 c3        1 E3G      0.336900
      2 C2'         1.5910    0.3100   -0.2840 c3        1 E3G      0.120100
      3 C3'         2.5330    0.0450    0.9020 c3        1 E3G      0.098100
      4 C4'         2.0570    0.7970    2.1560 c3        1 E3G      0.115100
      5 C5'         0.5990    0.4270    2.4450 c3        1 E3G     -0.021900
      6 C6'        -0.0010    1.1750    3.6750 c         1 E3G      0.937600
      7 C1         -4.1710    0.1840    0.3640 ca        1 E3G     -0.117000
      8 C2         -2.8040    0.4320    0.4220 ca        1 E3G     -0.142000
      9 C3         -2.0510    0.3430   -0.7570 ca        1 E3G      0.119100
     10 C4         -2.6680    0.0150   -1.9710 ca        1 E3G     -0.157000
     11 C5         -4.0470   -0.2180   -2.0160 ca        1 E3G     -0.078300
     12 C6         -4.6400   -0.5230   -3.3490 c3        1 E3G     -0.028100
     13 C7         -6.0790   -0.9910   -3.2880 c3        1 E3G     -0.070400
     14 C8         -6.8500   -0.1730   -2.2680 c3        1 E3G     -0.048700
     15 C9         -6.2760   -0.4520   -0.8670 c3        1 E3G     -0.003400
     16 C10        -4.8120   -0.1380   -0.8400 ca        1 E3G     -0.103300
     17 C11        -7.0630    0.2670    0.2260 c3        1 E3G     -0.076400
     18 C12        -8.5710    0.0830    0.1390 c3        1 E3G     -0.055400
     19 C13        -9.0770    0.3940   -1.2560 c3        1 E3G     -0.149000
     20 C14        -8.3190   -0.5250   -2.2430 c3        1 E3G     -0.061700
     21 C15        -9.1470   -0.4770   -3.5220 c3        1 E3G     -0.072400
     22 C16       -10.5940   -0.3820   -3.0290 c3        1 E3G     -0.189400
     23 C17       -10.5260    0.0450   -1.5740 c         1 E3G      0.577100
     24 C18        -8.9290    1.8810   -1.5560 c3        1 E3G     -0.083100
     25 O8'         1.8780   -0.5890   -1.3450 oh        1 E3G     -0.603800
     26 O9'         3.8280    0.4640    0.4930 oh        1 E3G     -0.630800
     27 O10         2.9320    0.4110    3.1990 oh        1 E3G     -0.655800
     28 O11        -1.2490    1.2470    3.7660 o         1 E3G     -0.817800
     29 O12         0.8310    1.6070    4.5240 o         1 E3G     -0.817800
     30 O7'        -0.1930    0.7860    1.3150 os        1 E3G     -0.401600
     31 O20        -0.7020    0.6580   -0.8350 os        1 E3G     -0.330900
     32 O19       -11.4870    0.1030   -0.8100 o         1 E3G     -0.530100
     33 H1'        -0.0830   -1.0410    0.2660 h2        1 E3G      0.052700
     34 H2'         1.7030    1.3700   -0.6410 h1        1 E3G      0.070700
     35 H3'         2.5710   -1.0600    1.1170 h1        1 E3G      0.050700
     36 H4'         2.1370    1.9080    1.9940 h1        1 E3G      0.058700
     37 H5'         0.5170   -0.6770    2.6360 h1        1 E3G      0.035700
     38 H4         -2.0630   -0.0450   -2.8860 ha        1 E3G      0.137000
     39 H61        -4.5820    0.4080   -3.9780 hc        1 E3G      0.043700
     40 H62        -4.0200   -1.3050   -3.8640 hc        1 E3G      0.043700
     41 H71        -6.1180   -2.0760   -3.0100 hc        1 E3G      0.035700
     42 H72        -6.5550   -0.8850   -4.2970 hc        1 E3G      0.035700
     43 H8         -6.7200    0.9160   -2.5140 hc        1 E3G      0.061700
     44 H9         -6.3770   -1.5620   -0.6760 hc        1 E3G      0.048700
     45 H111       -6.8120    1.3590    0.2020 hc        1 E3G      0.052200
     46 H112       -6.7340   -0.1270    1.2260 hc        1 E3G      0.052200
     47 H121       -8.8400   -0.9730    0.4050 hc        1 E3G      0.047700
     48 H122       -9.0710    0.7550    0.8840 hc        1 E3G      0.047700
     49 H14        -8.4000   -1.5830   -1.8490 hc        1 E3G      0.049700
     50 H151       -8.9880   -1.3900   -4.1440 hc        1 E3G      0.047200
     51 H152       -8.8750    0.4130   -4.1420 hc        1 E3G      0.047200
     52 H161      -11.1790    0.3680   -3.6150 hc        1 E3G      0.068700
     53 H162      -11.1150   -1.3680   -3.1090 hc        1 E3G      0.068700
     54 H181       -9.6240    2.4620   -0.9030 hc        1 E3G      0.044367
     55 H182       -9.1750    2.0910   -2.6250 hc        1 E3G      0.044367
     56 H183       -7.8870    2.2280   -1.3570 hc        1 E3G      0.044367
     57 HO8         2.8200   -0.4840   -1.5320 ho        1 E3G      0.410000
     58 HO9         4.3390    0.5950    1.3030 ho        1 E3G      0.425000
     59 HO1         2.5570    0.7750    4.0230 ho        1 E3G      0.466000
     60 H1         -4.7470    0.2530    1.3000 ha        1 E3G      0.136000
     61 H2         -2.3230    0.7020    1.3860 ha        1 E3G      0.216000
@<TRIPOS>BOND
     1    1    2 1   
     2    1   30 1   
     3    1   31 1   
     4    1   33 1   
     5    2    3 1   
     6    2   25 1   
     7    2   34 1   
     8    3    4 1   
     9    3   26 1   
    10    3   35 1   
    11    4    5 1   
    12    4   27 1   
    13    4   36 1   
    14    5    6 1   
    15    5   30 1   
    16    5   37 1   
    17    6   28 1   
    18    6   29 1   
    19    7    8 ar  
    20    7   16 ar  
    21    7   60 1   
    22    8    9 ar  
    23    8   61 1   
    24    9   10 ar  
    25    9   31 1   
    26   10   11 ar  
    27   10   38 1   
    28   11   12 1   
    29   11   16 ar  
    30   12   13 1   
    31   12   39 1   
    32   12   40 1   
    33   13   14 1   
    34   13   41 1   
    35   13   42 1   
    36   14   15 1   
    37   14   20 1   
    38   14   43 1   
    39   15   16 1   
    40   15   17 1   
    41   15   44 1   
    42   17   18 1   
    43   17   45 1   
    44   17   46 1   
    45   18   19 1   
    46   18   47 1   
    47   18   48 1   
    48   19   20 1   
    49   19   23 1   
    50   19   24 1   
    51   20   21 1   
    52   20   49 1   
    53   21   22 1   
    54   21   50 1   
    55   21   51 1   
    56   22   23 1   
    57   22   52 1   
    58   22   53 1   
    59   23   32 2   
    60   24   54 1   
    61   24   55 1   
    62   24   56 1   
    63   25   57 1   
    64   26   58 1   
    65   27   59 1   
@<TRIPOS>SUBSTRUCTURE
     1 E3G         1 TEMP              0 ****  ****    0 ROOT
