@<TRIPOS>MOLECULE
molecule
   63    65     1     0     0
SMALL
bcc


@<TRIPOS>ATOM
      1 C10          0.0000     0.0000     0.0000 c3         1 E3N       0.238800
      2 C13         -3.1790    -1.5500     0.5780 c3         1 E3N      -0.214900
      3 C15         -4.2650    -2.5410     0.1500 c3         1 E3N      -0.071600
      4 C20          3.5680     0.0310     1.4460 c3         1 E3N      -0.119400
      5 C22          8.3350    -0.5870     5.1440 c3         1 E3N       0.181300
      6 C24         10.3970     0.8240     5.2770 ca         1 E3N      -0.077000
      7 C26         12.5080     0.0320     4.4610 ca         1 E3N       0.132100
      8 C28         14.5570    -0.8380     3.6250 c3         1 E3N       0.795700
      9 C02          6.2300    -0.2230     3.9720 c          1 E3N       0.781100
     10 C04          4.0690     0.0940     2.8920 c3         1 E3N       0.133700
     11 C05          3.4620     1.3220     3.5780 c3         1 E3N      -0.134400
     12 C06          1.9350     1.2400     3.4950 c3         1 E3N       0.134400
     13 C08          2.0380     0.0000     1.4440 c3         1 E3N       0.158800
     14 C09          1.5310     0.0000     0.0000 c3         1 E3N      -0.096900
     15 C14         -3.2700    -1.3160     2.0870 c3         1 E3N      -0.071600
     16 C18          0.0170    -1.2810     2.1790 c3         1 E3N       0.238800
     17 C19          1.5540    -1.2650     2.1570 c3         1 E3N      -0.096900
     18 C23          9.8070    -0.3680     4.9010 ca         1 E3N      -0.141300
     19 C25         11.7460     1.0280     5.0560 ca         1 E3N      -0.172500
     20 C32         11.9110    -1.1610     4.0800 ca         1 E3N      -0.172500
     21 C33         10.5630    -1.3600     4.3050 ca         1 E3N      -0.077000
     22 F29         14.4750    -1.9800     4.4280 f          1 E3N      -0.203633
     23 F30         15.8970    -0.4690     3.4760 f          1 E3N      -0.203633
     24 F31         14.0040    -1.1110     2.3690 f          1 E3N      -0.203633
     25 N03          5.5300     0.2000     2.9010 ns         1 E3N      -0.599900
     26 N11         -0.4760    -1.1350     0.8030 n3         1 E3N      -0.817500
     27 N21          7.5740    -0.1260     3.9810 ns         1 E3N      -0.604900
     28 O01          5.6500    -0.6950     4.9310 o          1 E3N      -0.662100
     29 O07          1.5380     1.1520     2.1250 os         1 E3N      -0.419600
     30 O16         -1.3040    -3.4210     0.9000 o          1 E3N      -0.631800
     31 O17         -1.3200    -2.1670    -1.2330 o          1 E3N      -0.631800
     32 S12         -1.5470    -2.2280     0.1680 s6         1 E3N       1.335900
     33 H1          -0.3620     0.9250     0.4320 h1         1 E3N       0.059700
     34 H2          -0.3620    -0.0990    -1.0160 h1         1 E3N       0.059700
     35 H3          -3.3320    -0.6050     0.0710 h1         1 E3N       0.100700
     36 H4          -5.2400    -2.0970     0.3050 hc         1 E3N       0.048533
     37 H5          -4.1400    -2.7820    -0.8990 hc         1 E3N       0.048533
     38 H6          -4.1810    -3.4450     0.7400 hc         1 E3N       0.048533
     39 H7           3.9480    -0.8660     0.9710 hc         1 E3N       0.056200
     40 H8           3.9120     0.9060     0.9070 hc         1 E3N       0.056200
     41 H9           8.1480    -1.6420     5.3030 h1         1 E3N       0.060200
     42 H10          8.0270    -0.0300     6.0210 h1         1 E3N       0.060200
     43 H11          9.8020     1.6000     5.7410 ha         1 E3N       0.145000
     44 H12          3.7630    -0.8020     3.4190 h1         1 E3N       0.083700
     45 H13          3.7660     1.3420     4.6170 hc         1 E3N       0.061700
     46 H14          3.8030     2.2200     3.0780 hc         1 E3N       0.061700
     47 H15          1.5920     0.3600     4.0260 h1         1 E3N       0.051200
     48 H16          1.5020     2.1280     3.9390 h1         1 E3N       0.051200
     49 H17          1.8910    -0.8860    -0.5080 hc         1 E3N       0.061200
     50 H18          1.8910     0.8860    -0.5080 hc         1 E3N       0.061200
     51 H19         -2.7910    -2.1360     2.6090 hc         1 E3N       0.048533
     52 H20         -4.3110    -1.2600     2.3820 hc         1 E3N       0.048533
     53 H21         -2.7730    -0.3870     2.3390 hc         1 E3N       0.048533
     54 H22         -0.3300    -2.2210     2.5900 h1         1 E3N       0.059700
     55 H23         -0.3450    -0.4580     2.7830 h1         1 E3N       0.059700
     56 H24          1.9290    -1.2720     3.1730 hc         1 E3N       0.061200
     57 H25          1.9160    -2.1380     1.6260 hc         1 E3N       0.061200
     58 H26         12.2100     1.9610     5.3520 ha         1 E3N       0.152000
     59 H27         12.5030    -1.9390     3.6140 ha         1 E3N       0.152000
     60 H28         10.0970    -2.2910     4.0080 ha         1 E3N       0.145000
     61 H29          6.0100     0.5670     2.1030 hn         1 E3N       0.307500
     62 H30          8.0530     0.2580     3.1900 hn         1 E3N       0.310500
     63 O27         13.8340     0.2300     4.2420 os         1 E3N      -0.339900
@<TRIPOS>BOND
     1    21    20 ar
     2    21    18 ar
     3    20     7 ar
     4     5    18 1
     5     5    27 1
     6    18     6 ar
     7     7    63 1
     8     7    19 ar
     9    28     9 2
    10    63     8 1
    11    22     8 1
    12    27     9 1
    13     6    19 ar
    14    23     8 1
    15     9    25 1
    16     8    24 1
    17    15     2 1
    18    25    10 1
    19    17    16 1
    20    17    13 1
    21    10     4 1
    22    10    11 1
    23    30    32 2
    24    16    26 1
    25     4    13 1
    26     2    32 1
    27     2     3 1
    28    13    14 1
    29    13    29 1
    30    32    26 1
    31    32    31 2
    32    11    12 1
    33    26     1 1
    34    12    29 1
    35    14     1 1
    36     1    33 1
    37     1    34 1
    38     2    35 1
    39     3    36 1
    40     3    37 1
    41     3    38 1
    42     4    39 1
    43     4    40 1
    44     5    41 1
    45     5    42 1
    46     6    43 1
    47    10    44 1
    48    11    45 1
    49    11    46 1
    50    12    47 1
    51    12    48 1
    52    14    49 1
    53    14    50 1
    54    15    51 1
    55    15    52 1
    56    15    53 1
    57    16    54 1
    58    16    55 1
    59    17    56 1
    60    17    57 1
    61    19    58 1
    62    20    59 1
    63    21    60 1
    64    25    61 1
    65    27    62 1
@<TRIPOS>SUBSTRUCTURE
     1 E3N         1 TEMP              0 ****  ****    0 ROOT
