@<TRIPOS>MOLECULE
E3O
   45    48     1     0     0
SMALL
bcc


@<TRIPOS>ATOM
      1 C2         -0.0940   -0.0160    0.1030 c3        1 E3O     -0.008400
      2 C3          1.4280   -0.1110    0.0570 c3        1 E3O     -0.072400
      3 C4          2.0920   -0.0510    1.4240 c3        1 E3O     -0.060400
      4 C5          1.6140    1.1530    2.2160 c3        1 E3O     -0.044000
      5 C6          2.1150    2.4380    1.5730 c3        1 E3O     -0.089100
      6 C7          2.0260    1.2070    3.7060 c3        1 E3O      0.111100
      7 O1          2.1510   -0.1120    4.2090 oh        1 E3O     -0.599800
      8 C8          0.8570    1.9520    4.4210 c3        1 E3O      0.105100
      9 O2          0.4740    1.2560    5.5910 oh        1 E3O     -0.599800
     10 C9         -0.2950    2.0620    3.4040 c3        1 E3O     -0.106400
     11 C10         0.0740    1.0670    2.3130 c3        1 E3O     -0.065700
     12 C12        -0.5640    1.1820    0.9480 c3        1 E3O     -0.047700
     13 C14        -2.0790    1.1710    1.0200 c3        1 E3O     -0.074400
     14 C15        -2.6690    1.4020   -0.3540 c3        1 E3O     -0.037100
     15 C16        -1.9640    0.6700   -1.4450 ca        1 E3O     -0.038300
     16 C17        -2.5750    0.6610   -2.7030 ca        1 E3O     -0.162000
     17 C18        -1.9500    0.0120   -3.7760 ca        1 E3O      0.123100
     18 O3         -2.6090    0.0450   -4.9850 oh        1 E3O     -0.499100
     19 C19        -0.7180   -0.6300   -3.5990 ca        1 E3O     -0.215000
     20 C20        -0.1230   -0.6160   -2.3420 ca        1 E3O     -0.091000
     21 C21        -0.7250    0.0290   -1.2540 ca        1 E3O     -0.100300
     22 H2         -0.4730   -0.9550    0.6090 hc        1 E3O      0.057700
     23 H3C1        1.8290    0.7080   -0.5960 hc        1 E3O      0.042200
     24 H3C2        1.7190   -1.0880   -0.4130 hc        1 E3O      0.042200
     25 H12        -0.2380    2.1370    0.4530 hc        1 E3O      0.060700
     26 H4C1        1.8620   -0.9850    2.0020 hc        1 E3O      0.053700
     27 H4C2        3.2040   -0.0030    1.2920 hc        1 E3O      0.053700
     28 H6C1        1.7220    3.3290    2.1220 hc        1 E3O      0.039033
     29 H6C2        1.7950    2.5100    0.5070 hc        1 E3O      0.039033
     30 H6C3        3.2310    2.4650    1.6040 hc        1 E3O      0.039033
     31 H7          2.9950    1.7550    3.8460 h1        1 E3O      0.046700
     32 H10        -0.1720    0.0390    2.7180 hc        1 E3O      0.056700
     33 H1          2.3740   -0.0250    5.1460 ho        1 E3O      0.412000
     34 H8          1.1840    2.9600    4.7870 h1        1 E3O      0.079700
     35 HA          0.1270    0.3970    5.3110 ho        1 E3O      0.410000
     36 H9C1       -1.2730    1.8090    3.8810 hc        1 E3O      0.056700
     37 H9C2       -0.3620    3.1010    3.0000 hc        1 E3O      0.056700
     38 H141       -2.4320    1.9730    1.7200 hc        1 E3O      0.044700
     39 H142       -2.4320    0.1890    1.4300 hc        1 E3O      0.044700
     40 H151       -2.6310    2.5010   -0.5940 hc        1 E3O      0.053200
     41 H152       -3.7530    1.1040   -0.3480 hc        1 E3O      0.053200
     42 H17        -3.5420    1.1590   -2.8600 ha        1 E3O      0.148000
     43 H3         -2.0710   -0.4400   -5.6270 ho        1 E3O      0.418000
     44 H19        -0.2300   -1.1390   -4.4410 ha        1 E3O      0.132000
     45 H20         0.8430   -1.1290   -2.2160 ha        1 E3O      0.134000
@<TRIPOS>BOND
     1    1    2 1   
     2    1   12 1   
     3    1   21 1   
     4    1   22 1   
     5    2    3 1   
     6    2   23 1   
     7    2   24 1   
     8    3    4 1   
     9    3   26 1   
    10    3   27 1   
    11    4    5 1   
    12    4    6 1   
    13    4   11 1   
    14    5   28 1   
    15    5   29 1   
    16    5   30 1   
    17    6    7 1   
    18    6    8 1   
    19    6   31 1   
    20    7   33 1   
    21    8    9 1   
    22    8   10 1   
    23    8   34 1   
    24    9   35 1   
    25   10   11 1   
    26   10   36 1   
    27   10   37 1   
    28   11   12 1   
    29   11   32 1   
    30   12   13 1   
    31   12   25 1   
    32   13   14 1   
    33   13   38 1   
    34   13   39 1   
    35   14   15 1   
    36   14   40 1   
    37   14   41 1   
    38   15   16 ar  
    39   15   21 ar  
    40   16   17 ar  
    41   16   42 1   
    42   17   18 1   
    43   17   19 ar  
    44   18   43 1   
    45   19   20 ar  
    46   19   44 1   
    47   20   21 ar  
    48   20   45 1   
@<TRIPOS>SUBSTRUCTURE
     1 E3O         1 TEMP              0 ****  ****    0 ROOT
