@<TRIPOS>MOLECULE
molecule
   45    48     1     0     0
SMALL
bcc


@<TRIPOS>ATOM
      1 C2           0.0000     0.0000     0.0000 c3         1 E3O      -0.013400
      2 C3           1.5510     0.0000     0.0000 c3         1 E3O      -0.066400
      3 C4           2.1650     0.0000     1.4140 c3         1 E3O      -0.059400
      4 C5           1.5960     1.1260     2.2900 c3         1 E3O      -0.071000
      5 C6           2.0860     2.4950     1.7530 c3         1 E3O      -0.082100
      6 C7           1.9030     1.0540     3.8040 c3         1 E3O       0.149100
      7 O1           1.7990    -0.2790     4.2970 oh         1 E3O      -0.579800
      8 C8           0.7870     1.9230     4.4280 c3         1 E3O       0.131100
      9 O2           0.3940     1.4610     5.7080 oh         1 E3O      -0.583800
     10 C9          -0.3980     1.8960     3.4410 c3         1 E3O      -0.087400
     11 C10          0.0590     0.9630     2.3190 c3         1 E3O      -0.060700
     12 C12         -0.5640     1.1160     0.9310 c3         1 E3O      -0.052700
     13 C14         -2.0910     1.0160     0.9560 c3         1 E3O      -0.072400
     14 C15         -2.6520     1.3240    -0.4290 c3         1 E3O      -0.034100
     15 C16         -1.9170     0.6420    -1.5560 ca         1 E3O      -0.063300
     16 C17         -2.5170     0.6520    -2.8280 ca         1 E3O      -0.157000
     17 C18         -1.8870     0.0580    -3.9180 ca         1 E3O       0.101100
     18 O3          -2.4810     0.0710    -5.1410 oh         1 E3O      -0.522100
     19 C19         -0.6510    -0.5530    -3.7490 ca         1 E3O      -0.153000
     20 C20         -0.0410    -0.5610    -2.4920 ca         1 E3O      -0.116000
     21 C21         -0.6470     0.0520    -1.3820 ca         1 E3O      -0.072300
     22 H2          -0.3020    -0.9430     0.4390 hc         1 E3O       0.057700
     23 H3C1         1.8970     0.8820    -0.5260 hc         1 E3O       0.041200
     24 H3C2         1.8970    -0.8820    -0.5260 hc         1 E3O       0.041200
     25 H12         -0.2840     2.0820     0.5270 hc         1 E3O       0.050700
     26 H4C1         1.9560    -0.9520     1.8870 hc         1 E3O       0.048200
     27 H4C2         3.2380     0.1290     1.3300 hc         1 E3O       0.048200
     28 H6C1         3.1690     2.5200     1.7630 hc         1 E3O       0.037367
     29 H6C2         1.7310     2.6320     0.7380 hc         1 E3O       0.037367
     30 H6C3         1.7000     3.2890     2.3810 hc         1 E3O       0.037367
     31 H7           2.8780     1.4750     4.0160 h1         1 E3O       0.035700
     32 H10         -0.1490    -0.0490     2.6460 hc         1 E3O       0.070700
     33 H1           2.5520    -0.4770     4.8280 ho         1 E3O       0.401000
     34 H8           1.1460     2.9420     4.5140 h1         1 E3O       0.024700
     35 HA           0.4090     2.1790     6.3200 ho         1 E3O       0.396000
     36 H9C1        -1.2820     1.4990     3.9250 hc         1 E3O       0.053700
     37 H9C2        -0.5860     2.8890     3.0510 hc         1 E3O       0.053700
     38 H141        -2.4750     1.7470     1.6570 hc         1 E3O       0.049700
     39 H142        -2.3690     0.0050     1.2270 hc         1 E3O       0.049700
     40 H151        -3.6820     0.9890    -0.4520 hc         1 E3O       0.051200
     41 H152        -2.5830     2.3940    -0.5850 hc         1 E3O       0.051200
     42 H17         -3.4820     1.1250    -2.9610 ha         1 E3O       0.138000
     43 H3          -2.2490     0.8640    -5.5950 ho         1 E3O       0.417000
     44 H19         -0.1560    -1.0170    -4.5940 ha         1 E3O       0.139000
     45 H20          0.9230    -1.0410    -2.3730 ha         1 E3O       0.133000
@<TRIPOS>BOND
     1     1     2 1
     2     1    12 1
     3     1    21 1
     4     1    22 1
     5     2     3 1
     6     2    23 1
     7     2    24 1
     8     3     4 1
     9     3    26 1
    10     3    27 1
    11     4     5 1
    12     4     6 1
    13     4    11 1
    14     5    28 1
    15     5    29 1
    16     5    30 1
    17     6     7 1
    18     6     8 1
    19     6    31 1
    20     7    33 1
    21     8     9 1
    22     8    10 1
    23     8    34 1
    24     9    35 1
    25    10    11 1
    26    10    36 1
    27    10    37 1
    28    11    12 1
    29    11    32 1
    30    12    13 1
    31    12    25 1
    32    13    14 1
    33    13    38 1
    34    13    39 1
    35    14    15 1
    36    14    40 1
    37    14    41 1
    38    15    16 ar
    39    15    21 ar
    40    16    17 ar
    41    16    42 1
    42    17    18 1
    43    17    19 ar
    44    18    43 1
    45    19    20 ar
    46    19    44 1
    47    20    21 ar
    48    20    45 1
@<TRIPOS>SUBSTRUCTURE
     1 E3O         1 TEMP              0 ****  ****    0 ROOT
