@<TRIPOS>MOLECULE
molecule
   58    60     1     0     0
SMALL
bcc


@<TRIPOS>ATOM
      1 C1           0.0000     0.0000     0.0000 c          1 E3P       0.888600
      2 N1           4.0350    -1.2510     0.8580 ns         1 E3P      -0.569900
      3 C2           1.5070     0.0000     0.0000 c3         1 E3P      -0.184400
      4 O2           5.9530    -0.3060     0.2650 o          1 E3P      -0.679100
      5 C3           2.0170     0.0000     1.4420 c3         1 E3P      -0.084400
      6 C4           3.5460     0.0000     1.4420 c3         1 E3P       0.043700
      7 C5           4.0500     0.1240     2.8570 c          1 E3P       0.462100
      8 O5           4.7470    -0.7470     3.3320 o          1 E3P      -0.415100
      9 O6          -0.6720     0.0050    -1.1610 o          1 E3P      -0.823800
     10 C7           5.7590    -2.5870    -0.3090 c3         1 E3P      -0.250400
     11 O7          -0.6040    -0.0000     1.0470 o          1 E3P      -0.823800
     12 C8           7.1610    -2.3700    -0.8810 c3         1 E3P       0.000900
     13 C9           7.6650    -3.6570    -1.4810 ca         1 E3P      -0.079300
     14 C10          8.3670    -4.5550    -0.6980 ca         1 E3P      -0.119500
     15 C11          8.8290    -5.7360    -1.2430 ca         1 E3P      -0.123000
     16 C12          8.5860    -6.0240    -2.5850 cp         1 E3P      -0.029000
     17 C13          7.8780    -5.1160    -3.3690 ca         1 E3P      -0.123000
     18 C14          7.4150    -3.9400    -2.8120 ca         1 E3P      -0.119500
     19 C15         10.0050    -9.6590    -4.2800 cp         1 E3P      -0.029000
     20 C16          9.2950    -8.7540    -5.0680 ca         1 E3P      -0.118500
     21 C17          8.8360    -7.5760    -4.5180 ca         1 E3P      -0.116500
     22 C19          9.0810    -7.2910    -3.1750 cp         1 E3P      -0.039000
     23 C35          9.7900    -8.1970    -2.3880 ca         1 E3P      -0.116500
     24 C36         10.2450    -9.3770    -2.9360 ca         1 E3P      -0.118500
     25 C37         10.4990   -10.9270    -4.8710 cp         1 E3P      -0.037000
     26 C38         10.2600   -11.2120    -6.2140 ca         1 E3P      -0.118500
     27 C39         10.7220   -12.3930    -6.7580 ca         1 E3P      -0.126000
     28 C40         11.4210   -13.2930    -5.9740 ca         1 E3P      -0.125000
     29 C41         11.6600   -13.0150    -4.6400 ca         1 E3P      -0.126000
     30 C42         11.2080   -11.8350    -4.0870 ca         1 E3P      -0.118500
     31 HN1          3.4750    -2.0790     0.9100 hn         1 E3P       0.352500
     32 H2           1.8680     0.8850    -0.5110 hc         1 E3P       0.044700
     33 H2A          1.8680    -0.8840    -0.5110 hc         1 E3P       0.044700
     34 H3           1.6560     0.8840     1.9530 hc         1 E3P       0.058200
     35 H3A          1.6560    -0.8850     1.9530 hc         1 E3P       0.058200
     36 HN3          2.9070     1.0030     4.1380 hn         1 E3P       0.472467
     37 HN3A         4.4830     1.4300     4.2080 hn         1 E3P       0.472467
     38 H4           3.9070     0.8370     0.8560 h1         1 E3P       0.115700
     39 H7           5.0840    -3.2230    -0.8690 hc         1 E3P       0.110200
     40 H7A          5.5770    -1.6130    -0.7480 hc         1 E3P       0.110200
     41 H8           7.1250    -1.6050    -1.6460 hc         1 E3P       0.062700
     42 H8A          7.8300    -2.0560    -0.0880 hc         1 E3P       0.062700
     43 H10          8.5560    -4.3300     0.3450 ha         1 E3P       0.135500
     44 H11          9.4280    -6.4110    -0.6430 ha         1 E3P       0.135500
     45 H13          7.7340    -5.3090    -4.4250 ha         1 E3P       0.135500
     46 H14          6.9490    -3.3340    -3.5800 ha         1 E3P       0.135500
     47 H35          9.9770    -7.9780    -1.3440 ha         1 E3P       0.133500
     48 H36         10.7970   -10.0810    -2.3240 ha         1 E3P       0.135500
     49 H38          9.7120   -10.5090    -6.8290 ha         1 E3P       0.132500
     50 H39         10.5370   -12.6160    -7.8020 ha         1 E3P       0.130500
     51 H40         11.7800   -14.2200    -6.4050 ha         1 E3P       0.130000
     52 H41         12.2100   -13.7220    -4.0310 ha         1 E3P       0.130500
     53 H42         11.3960   -11.6190    -3.0420 ha         1 E3P       0.132500
     54 N3           3.7240     1.2040     3.5960 nz         1 E3P      -0.682400
     55 H17          8.2850    -6.8720    -5.1290 ha         1 E3P       0.133500
     56 H33          3.5040     1.9690     2.9900 hn         1 E3P       0.472467
     57 C6           5.2580    -1.2990     0.2910 c          1 E3P       0.729100
     58 H16          9.1070    -8.9740    -6.1110 ha         1 E3P       0.135500
@<TRIPOS>BOND
     1     3     1 1
     2     1     9 1
     3     1    11 1
     4    57     2 1
     5     6     2 1
     6     2    31 1
     7     5     3 1
     8     3    32 1
     9     3    33 1
    10     4    57 2
    11     6     5 1
    12     5    34 1
    13     5    35 1
    14    54     7 1
    15    54    36 1
    16    54    37 1
    17     7     6 1
    18     6    38 1
    19     7     8 2
    20    57    10 1
    21    10    12 1
    22    10    39 1
    23    10    40 1
    24    12    13 1
    25    12    41 1
    26    12    42 1
    27    14    13 ar
    28    13    18 ar
    29    14    15 ar
    30    14    43 1
    31    15    16 ar
    32    15    44 1
    33    16    17 ar
    34    16    22 1
    35    18    17 ar
    36    17    45 1
    37    18    46 1
    38    24    19 ar
    39    19    20 ar
    40    19    25 1
    41    21    20 ar
    42    20    58 1
    43    22    21 ar
    44    21    55 1
    45    23    22 ar
    46    23    24 ar
    47    23    47 1
    48    24    48 1
    49    26    25 ar
    50    25    30 ar
    51    26    27 ar
    52    26    49 1
    53    27    28 ar
    54    27    50 1
    55    28    29 ar
    56    28    51 1
    57    30    29 ar
    58    29    52 1
    59    30    53 1
    60    56    54 1
@<TRIPOS>SUBSTRUCTURE
     1 E3P         1 TEMP              0 ****  ****    0 ROOT
