@<TRIPOS>MOLECULE
E3P
   58    61     1     0     0
SMALL
bcc


@<TRIPOS>ATOM
      1 C1           0.0000     0.0000     0.0000 c2         1 E3P       0.394000
      2 N1           4.0350    -1.2510     0.8580 n7         1 E3P       0.007000
      3 C2           1.5070     0.0000     0.0000 c3         1 E3P      -0.163000
      4 O2           5.9530    -0.3060     0.2650 o          1 E3P      -0.490000
      5 C3           2.0170     0.0000     1.4420 c3         1 E3P      -0.105000
      6 C4           3.5460     0.0000     1.4420 c3         1 E3P      -0.078000
      7 C5           4.0500     0.1240     2.8570 c2         1 E3P       0.014000
      8 O5           4.7470    -0.7470     3.3320 o          1 E3P      -0.182000
      9 O6          -0.6720     0.0050    -1.1610 o          1 E3P      -0.607500
     10 C7           5.7590    -2.5870    -0.3090 c3         1 E3P      -0.254000
     11 O7          -0.6040    -0.0000     1.0470 o          1 E3P      -0.607500
     12 C8           7.1610    -2.3700    -0.8810 c3         1 E3P      -0.006000
     13 C9           7.6650    -3.6570    -1.4810 ca         1 E3P      -0.081000
     14 C10          8.3670    -4.5550    -0.6980 ca         1 E3P      -0.091500
     15 C11          8.8290    -5.7360    -1.2430 ca         1 E3P      -0.105000
     16 C12          8.5860    -6.0240    -2.5850 cp         1 E3P      -0.025000
     17 C13          7.8780    -5.1160    -3.3690 ca         1 E3P      -0.105000
     18 C14          7.4150    -3.9400    -2.8120 ca         1 E3P      -0.091500
     19 C15         10.0050    -9.6590    -4.2800 cp         1 E3P      -0.026000
     20 C16          9.2950    -8.7540    -5.0680 ca         1 E3P      -0.097500
     21 C17          8.8360    -7.5760    -4.5180 ca         1 E3P      -0.094500
     22 C19          9.0810    -7.2910    -3.1750 cq         1 E3P      -0.036000
     23 C35          9.7900    -8.1970    -2.3880 ca         1 E3P      -0.094500
     24 C36         10.2450    -9.3770    -2.9360 ca         1 E3P      -0.097500
     25 C37         10.4990   -10.9270    -4.8710 cp         1 E3P      -0.033000
     26 C38         10.2600   -11.2120    -6.2140 ca         1 E3P      -0.099500
     27 C39         10.7220   -12.3930    -6.7580 ca         1 E3P      -0.097500
     28 C40         11.4210   -13.2930    -5.9740 ca         1 E3P      -0.100000
     29 C41         11.6600   -13.0150    -4.6400 ca         1 E3P      -0.097500
     30 C42         11.2080   -11.8350    -4.0870 ca         1 E3P      -0.099500
     31 HN1          3.4750    -2.0790     0.9100 hn         1 E3P       0.124000
     32 H2           1.8680     0.8850    -0.5110 hc         1 E3P       0.056500
     33 H2A          1.8680    -0.8840    -0.5110 hc         1 E3P       0.056500
     34 H3           1.6560     0.8840     1.9530 hc         1 E3P       0.067500
     35 H3A          1.6560    -0.8850     1.9530 hc         1 E3P       0.067500
     36 HN3          2.9070     1.0030     4.1380 hn         1 E3P       0.041000
     37 HN3A         4.4830     1.4300     4.2080 hn         1 E3P       0.041000
     38 H4           3.9070     0.8370     0.8560 h1         1 E3P       0.127000
     39 H7           5.0840    -3.2230    -0.8690 hc         1 E3P       0.133000
     40 H7A          5.5770    -1.6130    -0.7480 DU         1 E3P       0.108000
     41 H8           7.1250    -1.6050    -1.6460 hc         1 E3P       0.068000
     42 H8A          7.8300    -2.0560    -0.0880 hc         1 E3P       0.068000
     43 H10          8.5560    -4.3300     0.3450 ha         1 E3P       0.109000
     44 H11          9.4280    -6.4110    -0.6430 ha         1 E3P       0.114000
     45 H13          7.7340    -5.3090    -4.4250 ha         1 E3P       0.114000
     46 H14          6.9490    -3.3340    -3.5800 ha         1 E3P       0.109000
     47 H35          9.9770    -7.9780    -1.3440 ha         1 E3P       0.111500
     48 H36         10.7970   -10.0810    -2.3240 ha         1 E3P       0.112500
     49 H38          9.7120   -10.5090    -6.8290 ha         1 E3P       0.111000
     50 H39         10.5370   -12.6160    -7.8020 ha         1 E3P       0.102500
     51 H40         11.7800   -14.2200    -6.4050 ha         1 E3P       0.102000
     52 H41         12.2100   -13.7220    -4.0310 ha         1 E3P       0.102500
     53 H42         11.3960   -11.6190    -3.0420 ha         1 E3P       0.111000
     54 N3           3.7240     1.2040     3.5960 nz         1 E3P       0.807000
     55 H17          8.2850    -6.8720    -5.1290 ha         1 E3P       0.111500
     56 H33          3.5040     1.9690     2.9900 hn         1 E3P       0.041000
     57 C6           5.2580    -1.2990     0.2910 c3         1 E3P       0.323000
     58 H16          9.1070    -8.9740    -6.1110 ha         1 E3P       0.112500
@<TRIPOS>BOND
     1     1     3 1   
     2     1     9 1   
     3     1    11 1   
     4     2     6 1   
     5     2    31 1   
     6     2    57 1   
     7     3     5 1   
     8     3    32 1   
     9     3    33 1   
    10     4    57 1   
    11     5     6 1   
    12     5    34 1   
    13     5    35 1   
    14     6     7 1   
    15     6    38 1   
    16     7     8 1   
    17     7    54 1   
    18    10    12 1   
    19    10    39 1   
    20    10    40 1   
    21    10    57 1   
    22    12    13 1   
    23    12    41 1   
    24    12    42 1   
    25    13    14 1   
    26    13    18 1   
    27    14    15 1   
    28    14    43 1   
    29    15    16 1   
    30    15    44 1   
    31    16    17 1   
    32    16    22 1   
    33    17    18 1   
    34    17    45 1   
    35    18    46 1   
    36    19    20 1   
    37    19    24 1   
    38    19    25 1   
    39    20    21 1   
    40    20    58 1   
    41    21    22 1   
    42    21    55 1   
    43    22    23 1   
    44    23    24 1   
    45    23    47 1   
    46    24    48 1   
    47    25    26 1   
    48    25    30 1   
    49    26    27 1   
    50    26    49 1   
    51    27    28 1   
    52    27    50 1   
    53    28    29 1   
    54    28    51 1   
    55    29    30 1   
    56    29    52 1   
    57    30    53 1   
    58    36    54 1   
    59    37    54 1   
    60    40    57 1   
    61    54    56 1   
@<TRIPOS>SUBSTRUCTURE
     1 E3P         1 TEMP              0 ****  ****    0 ROOT
