@<TRIPOS>MOLECULE
E3S
   63    66     1     0     0
SMALL
bcc


@<TRIPOS>ATOM
      1 C4           0.0000     0.0000     0.0000 ca         1 E3S      -0.203000
      2 C5           1.3790     0.0000     0.0000 ca         1 E3S      -0.061000
      3 C6           2.0860     0.0000     1.1960 ca         1 E3S      -0.148300
      4 C7           3.5920    -0.0140     1.1210 c3         1 E3S       0.026000
      5 C10          3.5540    -0.4410     3.5950 c3         1 E3S       0.030000
      6 C13          0.0190    -0.0030     2.3970 ca         1 E3S      -0.141000
      7 C17          6.8700     2.3630     3.8930 cc         1 E3S       0.078900
      8 C26          4.0160    -3.1270    -0.9530 ca         1 E3S      -0.074400
      9 C28          3.4870    -5.1560    -2.1170 ca         1 E3S      -0.074000
     10 C1          -2.7050    -0.0110    -0.0500 c3         1 E3S       0.244700
     11 C3          -0.6860    -0.0050     1.2070 ca         1 E3S       0.165100
     12 N9           4.1550     0.2590     2.4470 n          1 E3S      -0.115800
     13 C11          2.1070     0.0340     3.7280 c3         1 E3S       0.010900
     14 C12          1.4080     0.0040     2.3950 ca         1 E3S      -0.022300
     15 C14          5.1820     1.1160     2.6090 c          1 E3S       0.594100
     16 O15          5.6600     1.6790     1.6470 o          1 E3S      -0.636100
     17 C16          5.7380     1.3750     3.9870 c3         1 E3S      -0.003200
     18 C18          6.7810     3.7040     4.0680 cd         1 E3S      -0.309200
     19 C19          8.1070     4.1690     3.8780 c          1 E3S       0.551700
     20 O20          8.5000     5.3220     3.9420 o          1 E3S      -0.681500
     21 N21          8.8420     3.0700     3.6120 ns         1 E3S       0.006600
     22 O22          8.1490     2.0790     3.6290 os         1 E3S      -0.132200
     23 C23          4.0570    -1.3670     0.6480 c          1 E3S       0.558100
     24 O24          4.7840    -2.0390     1.3500 o          1 E3S      -0.634100
     25 N25          3.6660    -1.8320    -0.5550 ns         1 E3S      -0.036100
     26 C27          3.1410    -3.8780    -1.7260 ca         1 E3S      -0.138000
     27 C29          4.7070    -5.6900    -1.7410 ca         1 E3S      -0.114300
     28 C30          5.5850    -4.9420    -0.9760 ca         1 E3S       0.129900
     29 F31          6.7770    -5.4660    -0.6110 f          1 E3S      -0.126900
     30 C32          5.2430    -3.6610    -0.5820 ca         1 E3S      -0.136000
     31 C33          5.0820    -7.0840    -2.1700 c3         1 E3S      -0.004700
     32 C34          6.3600    -7.0350    -3.0100 c3         1 E3S      -0.002767
     33 C35          5.3170    -7.9530    -0.9320 c3         1 E3S      -0.002767
     34 C36          3.9470    -7.6840    -3.0050 c3         1 E3S      -0.002767
     35 H1          -0.5450    -0.0010    -0.9360 ha         1 E3S       0.124000
     36 H2           1.9160     0.0040    -0.9410 ha         1 E3S       0.101000
     37 H3           3.9240     0.7490     0.4270 h1         1 E3S       0.083700
     38 H4           4.0970    -0.1780     4.4950 h1         1 E3S       0.042700
     39 H5           3.5600    -1.5070     3.4030 h1         1 E3S       0.042700
     40 H6          -0.5160    -0.0070     3.3390 ha         1 E3S       0.123000
     41 H7           2.8020    -5.7430    -2.7180 ha         1 E3S       0.124000
     42 H8          -2.4150    -0.8940    -0.6070 h1         1 E3S      -0.000633
     43 H9          -2.4230     0.8750    -0.6060 h1         1 E3S      -0.000633
     44 H10         -3.7780    -0.0160     0.1010 h1         1 E3S      -0.000633
     45 H11          2.1120     1.0540     4.0920 hc         1 E3S       0.032700
     46 H12          1.5870    -0.6340     4.4040 hc         1 E3S       0.032700
     47 H13          4.9580     1.7780     4.6210 hc         1 E3S       0.045700
     48 H14          6.1030     0.4460     4.4090 hc         1 E3S       0.045700
     49 H15          6.1760     4.1070     4.8720 ha         1 E3S       0.151000
     50 H16          9.8270     3.0740     3.4310 hn         1 E3S       0.217500
     51 H17          3.1690    -1.2340    -1.1850 hn         1 E3S       0.179500
     52 H18          2.1850    -3.4620    -2.0210 ha         1 E3S       0.107000
     53 H19          5.9300    -3.0760     0.0170 ha         1 E3S       0.161000
     54 H20          7.2030    -6.8060    -2.3700 hc         1 E3S       0.010700
     55 H21          6.2640    -6.2680    -3.7690 hc         1 E3S       0.010700
     56 H22          6.5170    -7.9960    -3.4850 hc         1 E3S       0.010700
     57 H23          6.2380    -7.6490    -0.4480 hc         1 E3S       0.010700
     58 H24          4.4900    -7.8310    -0.2430 hc         1 E3S       0.010700
     59 H25          5.3910    -8.9920    -1.2290 hc         1 E3S       0.010700
     60 H26          3.7790    -7.0700    -3.8810 hc         1 E3S       0.010700
     61 H27          3.0420    -7.7200    -2.4110 hc         1 E3S       0.010700
     62 H28          4.2170    -8.6870    -3.3140 hc         1 E3S       0.010700
     63 O2          -2.0450    -0.0100     1.2180 os         1 E3S      -0.304900
@<TRIPOS>BOND
     1     1     2 ar  
     2     1    11 ar  
     3     1    35 1   
     4     2     3 ar  
     5     2    36 1   
     6     3     4 1   
     7     3    14 ar  
     8     4    12 1   
     9     4    23 1   
    10     4    37 1   
    11     5    12 1   
    12     5    13 1   
    13     5    38 1   
    14     5    39 1   
    15     6    11 ar  
    16     6    14 ar  
    17     6    40 1   
    18     7    17 1   
    19     7    18 2   
    20     7    22 1   
    21     8    25 1   
    22     8    26 ar  
    23     8    30 ar  
    24     9    26 ar  
    25     9    27 ar  
    26     9    41 1   
    27    10    42 1   
    28    10    43 1   
    29    10    44 1   
    30    10    63 1   
    31    11    63 1   
    32    12    15 1   
    33    13    14 1   
    34    13    45 1   
    35    13    46 1   
    36    15    16 2   
    37    15    17 1   
    38    17    47 1   
    39    17    48 1   
    40    18    19 1   
    41    18    49 1   
    42    19    20 2   
    43    19    21 1   
    44    21    22 1   
    45    21    50 1   
    46    23    24 2   
    47    23    25 1   
    48    25    51 1   
    49    26    52 1   
    50    27    28 ar  
    51    27    31 1   
    52    28    29 1   
    53    28    30 ar  
    54    30    53 1   
    55    31    32 1   
    56    31    33 1   
    57    31    34 1   
    58    32    54 1   
    59    32    55 1   
    60    32    56 1   
    61    33    57 1   
    62    33    58 1   
    63    33    59 1   
    64    34    60 1   
    65    34    61 1   
    66    34    62 1   
@<TRIPOS>SUBSTRUCTURE
     1 E3S         1 TEMP              0 ****  ****    0 ROOT
