@<TRIPOS>MOLECULE
molecule
   66    70     1     0     0
SMALL
bcc


@<TRIPOS>ATOM
      1 C4           0.0000     0.0000     0.0000 ca         1 E3V      -0.272300
      2 C5           1.3820     0.0000     0.0000 ca         1 E3V      -0.069000
      3 C6           2.0550     0.0000     1.2190 ca         1 E3V      -0.251600
      4 C7           3.5620    -0.0250     1.1950 c3         1 E3V       0.103000
      5 C10          3.4320    -0.4590     3.6640 c3         1 E3V       0.102000
      6 C21          8.9280     1.2220     5.1270 c3         1 E3V      -0.174400
      7 C22          9.4490     0.4100     6.2840 c          1 E3V       0.891600
      8 C26          4.0340    -1.3780     0.7300 c          1 E3V       0.647100
      9 C30          3.4360    -3.8540    -1.7790 ca         1 E3V      -0.161000
     10 C40          5.4980    -3.4150    -0.6200 ca         1 E3V      -0.161000
     11 C31          3.9620    -5.0550    -2.2580 ca         1 E3V      -0.039800
     12 C37          5.2650    -5.4190    -1.9080 ca         1 E3V      -0.146300
     13 C29          4.2060    -3.0390    -0.9640 ca         1 E3V       0.084600
     14 C38          6.0260    -4.6030    -1.0980 ca         1 E3V       0.173900
     15 C12          1.3340     0.0080     2.3900 ca         1 E3V       0.504600
     16 C3          -0.6690    -0.0010     1.2180 ca         1 E3V       0.664600
     17 C32          3.3910    -6.1040    -3.1240 ce         1 E3V      -0.109200
     18 C11          1.9870     0.0290     3.7480 c3         1 E3V      -0.152700
     19 C33          4.2590    -7.0800    -3.3230 c2         1 E3V      -0.164200
     20 C18          6.7990     2.3180     4.1990 cy         1 E3V      -0.076400
     21 C25          6.6020     0.2540     4.6370 cy         1 E3V      -0.076400
     22 C16          5.6230     1.3310     4.1400 cy         1 E3V      -0.192700
     23 C19          7.4150     1.3980     5.2670 cy         1 E3V      -0.052700
     24 C34          5.5290    -6.7460    -2.5760 c3         1 E3V       0.009500
     25 C35          6.7010    -6.6260    -3.5520 c3         1 E3V      -0.070600
     26 C36          5.8230    -7.8180    -1.5250 c3         1 E3V      -0.070600
     27 C1          -2.6510    -0.0060     2.5260 c3         1 E3V       0.137700
     28 N13          0.0060     0.0030     2.3520 nb         1 E3V      -0.779000
     29 N9           4.0820     0.2380     2.5420 n          1 E3V      -0.474800
     30 N28          3.6810    -1.8330    -0.4890 ns         1 E3V      -0.485100
     31 O15          5.6300     1.6440     1.8000 o          1 E3V      -0.618100
     32 O27          4.7330    -2.0570     1.4520 o          1 E3V      -0.561100
     33 O24         10.7580     0.1280     6.3710 o          1 E3V      -0.856300
     34 O23          8.6870     0.0110     7.1340 o          1 E3V      -0.856300
     35 O2          -2.0250    -0.0060     1.2410 os         1 E3V      -0.446100
     36 F39          7.2850    -4.9660    -0.7680 f          1 E3V      -0.134900
     37 H1          -0.5520    -0.0030    -0.9320 ha         1 E3V       0.148000
     38 H2           1.9330     0.0010    -0.9330 ha         1 E3V       0.133000
     39 H3           3.9210     0.7400     0.5170 h1         1 E3V       0.111700
     40 H4           3.4460    -1.5280     3.4870 h1         1 E3V       0.077200
     41 H5           3.9500    -0.2280     4.5870 h1         1 E3V       0.077200
     42 H6           9.1480     0.7100     4.1980 hc         1 E3V       0.035700
     43 H7           9.4060     2.1950     5.1250 hc         1 E3V       0.035700
     44 H8           2.4280    -3.5590    -2.0450 ha         1 E3V       0.130000
     45 H9           6.0960    -2.7740     0.0170 ha         1 E3V       0.187000
     46 H10          2.3920    -6.0770    -3.5410 ha         1 E3V       0.135000
     47 H11          1.4320    -0.6160     4.4190 hc         1 E3V       0.071200
     48 H12          1.9770     1.0430     4.1310 hc         1 E3V       0.071200
     49 H13          3.9170    -8.1070    -3.3780 ha         1 E3V       0.148000
     50 H14          7.3750     2.3470     3.2820 hc         1 E3V       0.058450
     51 H15          6.5180     3.2890     4.5880 hc         1 E3V       0.058450
     52 H16          6.1630    -0.4090     5.3730 hc         1 E3V       0.058450
     53 H17          7.1260    -0.2460     3.8330 hc         1 E3V       0.058450
     54 H18          4.8490     1.5590     4.8620 hc         1 E3V       0.066700
     55 H19          7.0860     1.6420     6.2690 hc         1 E3V       0.079700
     56 H20          6.5510    -5.7660    -4.1920 hc         1 E3V       0.040867
     57 H21          7.6230    -6.5060    -2.9960 hc         1 E3V       0.040867
     58 H22          6.7590    -7.5220    -4.1590 hc         1 E3V       0.040867
     59 H23          5.0190    -7.8440    -0.8010 hc         1 E3V       0.040867
     60 H24          5.9060    -8.7840    -2.0080 hc         1 E3V       0.040867
     61 H25          6.7540    -7.5850    -1.0220 hc         1 E3V       0.040867
     62 H26         -2.3520     0.8790     3.0740 h1         1 E3V       0.045700
     63 H27         -2.3500    -0.8900     3.0740 h1         1 E3V       0.045700
     64 H28         -3.7280    -0.0070     2.4020 h1         1 E3V       0.045700
     65 H29          3.0790    -1.2860    -1.0720 hn         1 E3V       0.323500
     66 C14          5.1120     1.0830     2.7430 c          1 E3V       0.689100
@<TRIPOS>BOND
     1    17    19 2
     2    17    11 1
     3     1     2 ar
     4     1    16 ar
     5    35    27 1
     6    35    16 1
     7    19    24 1
     8     2     3 ar
     9    16    28 ar
    10    11     9 ar
    11    11    12 ar
    12     9    13 ar
    13    24    26 1
    14    24    12 1
    15    24    25 1
    16    28    15 ar
    17     3    15 ar
    18     3     4 1
    19    12    14 ar
    20    13    30 1
    21    13    10 ar
    22    30     8 1
    23    15    18 1
    24     4     8 1
    25     4    29 1
    26     8    32 2
    27    14    10 ar
    28    14    36 1
    29    29     5 1
    30    29    66 1
    31    18     5 1
    32    31    66 2
    33    66    22 1
    34    34     7 1
    35    20    22 1
    36    20    23 1
    37    22    21 1
    38     7    33 1
    39     7     6 1
    40    21    23 1
    41    23     6 1
    42     1    37 1
    43     2    38 1
    44     4    39 1
    45     5    40 1
    46     5    41 1
    47     6    42 1
    48     6    43 1
    49     9    44 1
    50    10    45 1
    51    17    46 1
    52    18    47 1
    53    18    48 1
    54    19    49 1
    55    20    50 1
    56    20    51 1
    57    21    52 1
    58    21    53 1
    59    22    54 1
    60    23    55 1
    61    25    56 1
    62    25    57 1
    63    25    58 1
    64    26    59 1
    65    26    60 1
    66    26    61 1
    67    27    62 1
    68    27    63 1
    69    27    64 1
    70    30    65 1
@<TRIPOS>SUBSTRUCTURE
     1 E3V         1 TEMP              0 ****  ****    0 ROOT
