@<TRIPOS>MOLECULE
E3Y
   38    41     1     0     0
SMALL
bcc


@<TRIPOS>ATOM
      1 C1           0.0000     0.0000     0.0000 ca         1 E3Y       0.616000
      2 C2           1.9960     0.0000     1.1550 ca         1 E3Y       0.614300
      3 C3           3.9860     0.0000     2.3200 ca         1 E3Y       0.442200
      4 C6           1.2670    -0.0010     2.3690 ca         1 E3Y      -0.336600
      5 C7          -0.1470     0.0100     2.3060 ca         1 E3Y       0.576200
      6 C8          -1.3840     1.2140     3.9950 ca         1 E3Y       0.033600
      7 C9          -0.8580     2.4160     3.5340 ca         1 E3Y      -0.123000
      8 C11         -2.3010     3.6150     5.0230 ca         1 E3Y       0.116100
      9 C13         -2.8280     2.4180     5.4790 ca         1 E3Y      -0.106000
     10 C14         -2.3680     1.2140     4.9710 ca         1 E3Y      -0.101300
     11 C16         -2.7180    -1.2120     4.5120 c3         1 E3Y      -0.046400
     12 C17         -1.2310    -1.2500     4.1380 c3         1 E3Y       0.185800
     13 C10         -1.3160     3.6130     4.0470 ca         1 E3Y      -0.170000
     14 C12         -2.1710     5.9900     5.0080 c3         1 E3Y       0.243700
     15 C15         -2.9500    -0.0700     5.5010 c3         1 E3Y       0.042900
     16 C4           3.3290    -0.0070     3.5460 ca         1 E3Y      -0.229300
     17 C5           1.9600     0.0030     3.5850 ca         1 E3Y      -0.022000
     18 N1           1.3140     0.0000     0.0000 nb         1 E3Y      -0.570000
     19 N2           3.3290    -0.0000     1.1830 nb         1 E3Y      -0.548000
     20 N3          -0.9070     0.0100     3.4560 nh         1 E3Y      -0.364700
     21 N4          -0.7210     0.0050     1.1100 nb         1 E3Y      -0.607000
     22 Cl1         -0.8280     0.0000    -1.5260 cl         1 E3Y      -0.040000
     23 H1           5.0690    -0.0080     2.3030 h4         1 E3Y      -0.016900
     24 H2          -0.0890     2.4140     2.7720 ha         1 E3Y       0.110000
     25 H3          -3.5970     2.4220     6.2420 ha         1 E3Y       0.117000
     26 H4          -3.3110    -1.0450     3.6210 hc         1 E3Y       0.028200
     27 H5          -3.0000    -2.1510     4.9720 hc         1 E3Y       0.028200
     28 H6          -1.0580    -2.0760     3.4580 h1         1 E3Y       0.019700
     29 H7          -0.6390    -1.3260     5.0420 h1         1 E3Y       0.019700
     30 H8          -0.9030     4.5490     3.6900 ha         1 E3Y       0.120000
     31 H9          -2.6190     6.8490     5.4920 h1         1 E3Y      -0.003300
     32 H10         -1.1050     5.9830     5.1990 h1         1 E3Y      -0.003300
     33 H11         -2.3470     6.0430     3.9410 h1         1 E3Y      -0.003300
     34 H12         -2.4760    -0.3130     6.4440 hc         1 E3Y       0.022200
     35 H13         -4.0150     0.0580     5.6530 hc         1 E3Y       0.022200
     36 H14          3.8990    -0.0060     4.4680 ha         1 E3Y       0.119000
     37 H15          1.4300    -0.0020     4.5300 ha         1 E3Y       0.124000
     38 O1          -2.7550     4.7930     5.5290 os         1 E3Y      -0.308900
@<TRIPOS>BOND
     1     1    18 ar  
     2     1    21 ar  
     3     1    22 1   
     4     2     4 ar  
     5     2    18 ar  
     6     2    19 ar  
     7     3    16 ar  
     8     3    19 ar  
     9     3    23 1   
    10     4     5 ar  
    11     4    17 ar  
    12     5    20 1   
    13     5    21 ar  
    14     6     7 ar  
    15     6    10 ar  
    16     6    20 1   
    17     7    13 ar  
    18     7    24 1   
    19     8     9 ar  
    20     8    13 ar  
    21     8    38 1   
    22     9    10 ar  
    23     9    25 1   
    24    10    15 1   
    25    11    12 1   
    26    11    15 1   
    27    11    26 1   
    28    11    27 1   
    29    12    20 1   
    30    12    28 1   
    31    12    29 1   
    32    13    30 1   
    33    14    31 1   
    34    14    32 1   
    35    14    33 1   
    36    14    38 1   
    37    15    34 1   
    38    15    35 1   
    39    16    17 ar  
    40    16    36 1   
    41    17    37 1   
@<TRIPOS>SUBSTRUCTURE
     1 E3Y         1 TEMP              0 ****  ****    0 ROOT
