@<TRIPOS>MOLECULE
molecule
   38    41     1     0     0
SMALL
bcc


@<TRIPOS>ATOM
      1 C1           0.0000     0.0000     0.0000 ca         1 E3Y       0.803000
      2 C2           1.9960     0.0000     1.1550 ca         1 E3Y       0.722300
      3 C3           3.9860     0.0000     2.3200 ca         1 E3Y       0.474200
      4 C6           1.2670    -0.0010     2.3690 ca         1 E3Y      -0.358600
      5 C7          -0.1470     0.0100     2.3060 ca         1 E3Y       0.769200
      6 C8          -1.3840     1.2140     3.9950 ca         1 E3Y       0.165600
      7 C9          -0.8580     2.4160     3.5340 ca         1 E3Y      -0.144000
      8 C11         -2.3010     3.6150     5.0230 ca         1 E3Y       0.109100
      9 C13         -2.8280     2.4180     5.4790 ca         1 E3Y      -0.125000
     10 C14         -2.3680     1.2140     4.9710 ca         1 E3Y      -0.095300
     11 C16         -2.7180    -1.2120     4.5120 c3         1 E3Y      -0.102400
     12 C17         -1.2310    -1.2500     4.1380 c3         1 E3Y       0.251800
     13 C10         -1.3160     3.6130     4.0470 ca         1 E3Y      -0.184000
     14 C12         -2.1710     5.9900     5.0080 c3         1 E3Y       0.129700
     15 C15         -2.9500    -0.0700     5.5010 c3         1 E3Y      -0.028100
     16 C4           3.3290    -0.0070     3.5460 ca         1 E3Y      -0.276300
     17 C5           1.9600     0.0030     3.5850 ca         1 E3Y      -0.036000
     18 N1           1.3140     0.0000     0.0000 nb         1 E3Y      -0.704000
     19 N2           3.3290    -0.0000     1.1830 nb         1 E3Y      -0.666000
     20 N3          -0.9070     0.0100     3.4560 nh         1 E3Y      -0.734700
     21 N4          -0.7210     0.0050     1.1100 nb         1 E3Y      -0.751000
     22 Cl1         -0.8280     0.0000    -1.5260 cl         1 E3Y      -0.096000
     23 H1           5.0690    -0.0080     2.3030 h4         1 E3Y       0.033100
     24 H2          -0.0890     2.4140     2.7720 ha         1 E3Y       0.136000
     25 H3          -3.5970     2.4220     6.2420 ha         1 E3Y       0.146000
     26 H4          -3.3110    -1.0450     3.6210 hc         1 E3Y       0.060200
     27 H5          -3.0000    -2.1510     4.9720 hc         1 E3Y       0.060200
     28 H6          -1.0580    -2.0760     3.4580 h1         1 E3Y       0.051200
     29 H7          -0.6390    -1.3260     5.0420 h1         1 E3Y       0.051200
     30 H8          -0.9030     4.5490     3.6900 ha         1 E3Y       0.139000
     31 H9          -2.6190     6.8490     5.4920 h1         1 E3Y       0.040700
     32 H10         -1.1050     5.9830     5.1990 h1         1 E3Y       0.040700
     33 H11         -2.3470     6.0430     3.9410 h1         1 E3Y       0.040700
     34 H12         -2.4760    -0.3130     6.4440 hc         1 E3Y       0.054700
     35 H13         -4.0150     0.0580     5.6530 hc         1 E3Y       0.054700
     36 H14          3.8990    -0.0060     4.4680 ha         1 E3Y       0.146000
     37 H15          1.4300    -0.0020     4.5300 ha         1 E3Y       0.155000
     38 O1          -2.7550     4.7930     5.5290 os         1 E3Y      -0.330900
@<TRIPOS>BOND
     1    38    14 1
     2    38     8 1
     3     9     8 ar
     4     9    10 ar
     5     8    13 ar
     6    15    10 1
     7    15    11 1
     8    10     6 ar
     9    13     7 ar
    10    11    12 1
    11     6     7 ar
    12     6    20 1
    13    17    16 ar
    14    17     4 ar
    15    16     3 ar
    16    12    20 1
    17    20     5 1
    18     4     5 ar
    19     4     2 ar
    20     3    19 ar
    21     5    21 ar
    22     2    19 ar
    23     2    18 ar
    24    21     1 ar
    25     1    18 ar
    26     1    22 1
    27     3    23 1
    28     7    24 1
    29     9    25 1
    30    11    26 1
    31    11    27 1
    32    12    28 1
    33    12    29 1
    34    13    30 1
    35    14    31 1
    36    14    32 1
    37    14    33 1
    38    15    34 1
    39    15    35 1
    40    16    36 1
    41    17    37 1
@<TRIPOS>SUBSTRUCTURE
     1 E3Y         1 TEMP              0 ****  ****    0 ROOT
