@<TRIPOS>MOLECULE
molecule
   69    72     1     0     0
SMALL
bcc


@<TRIPOS>ATOM
      1 O13          0.0000     0.0000     0.0000 o          1 E40      -0.619300
      2 S13          1.4210     0.0000     0.0000 sy         1 E40       1.428200
      3 O14          2.1990     0.0000     1.1890 o          1 E40      -0.619300
      4 C28          1.9180    -1.4190    -0.9190 ca         1 E40      -0.329500
      5 C14          3.1670    -1.9750    -0.7080 ca         1 E40      -0.023000
      6 C17          3.5620    -3.0860    -1.4250 ca         1 E40      -0.152000
      7 C16          2.6980    -3.6490    -2.3630 cp         1 E40       0.038000
      8 C21          3.1180    -4.8410    -3.1400 cp         1 E40      -0.099000
      9 C26          4.3770    -5.4030    -2.9300 ca         1 E40      -0.070500
     10 C25          4.7640    -6.5110    -3.6550 ca         1 E40      -0.191500
     11 C24          3.9030    -7.0660    -4.5910 ca         1 E40       0.155100
     12 O24          4.2910    -8.1540    -5.3070 os         1 E40      -0.325900
     13 C61          5.5930    -8.6770    -5.0400 c3         1 E40       0.127700
     14 C23          2.6500    -6.5080    -4.8020 ca         1 E40      -0.191500
     15 C30          2.2540    -5.4040    -4.0770 ca         1 E40      -0.070500
     16 C15          1.4410    -3.0860    -2.5710 ca         1 E40      -0.152000
     17 C29          1.0550    -1.9780    -1.8450 ca         1 E40      -0.023000
     18 N12          1.8890     1.3320    -0.8650 n3         1 E40      -0.603000
     19 O15          3.0200     2.0800    -0.4560 os         1 E40      -0.113100
     20 C67          2.7450     3.0350     0.5700 c3         1 E40       0.098100
     21 C69          3.5580     2.6880     1.8190 c3         1 E40      -0.095100
     22 C68          3.1300     4.4330     0.0830 c3         1 E40      -0.095100
     23 C31          1.1330     1.7370    -2.0530 c3         1 E40       0.184500
     24 C11          0.4180     3.0340    -1.7740 c          1 E40       0.664100
     25 O2           0.7060     3.6880    -0.7950 o          1 E40      -0.565100
     26 N2          -0.5430     3.4680    -2.6150 ns         1 E40      -0.468400
     27 O7          -1.2150     4.6860    -2.3540 oh         1 E40      -0.359100
     28 C32          2.0930     1.9260    -3.2290 c3         1 E40      -0.109400
     29 C33          2.7610     0.5910    -3.5610 c3         1 E40       0.115000
     30 N48          3.7390     0.7880    -4.6340 n          1 E40      -0.490400
     31 C52          5.0520     1.0050    -4.4370 c          1 E40       0.721100
     32 O54          5.6060     1.0680    -3.3580 o          1 E40      -0.574500
     33 C49          3.4440     0.7690    -5.9460 c          1 E40       0.721100
     34 O53          2.3410     0.5910    -6.4220 o          1 E40      -0.574500
     35 C50          4.6870     1.0050    -6.7120 ca         1 E40      -0.153600
     36 C51          5.7080     1.1550    -5.7530 ca         1 E40      -0.153600
     37 C55          4.9890     1.0920    -8.0610 ca         1 E40      -0.060000
     38 C56          6.2960     1.3290    -8.4570 ca         1 E40      -0.114000
     39 C57          7.2980     1.4790    -7.5170 ca         1 E40      -0.114000
     40 C58          7.0100     1.3900    -6.1640 ca         1 E40      -0.060000
     41 H1           3.8380    -1.5360     0.0210 ha         1 E40       0.152000
     42 H2           4.5410    -3.5200    -1.2590 ha         1 E40       0.141000
     43 H3           5.0490    -4.9700    -2.2000 ha         1 E40       0.138000
     44 H4           5.7420    -6.9480    -3.4930 ha         1 E40       0.143500
     45 H5           5.7730    -9.5390    -5.6710 h1         1 E40       0.043367
     46 H6           6.3370    -7.9170    -5.2450 h1         1 E40       0.043367
     47 H7           5.6570    -8.9730    -3.9990 h1         1 E40       0.043367
     48 H8           1.9790    -6.9450    -5.5330 ha         1 E40       0.143500
     49 H9           1.2760    -4.9690    -4.2430 ha         1 E40       0.138000
     50 H10          0.7650    -3.5210    -3.2970 ha         1 E40       0.141000
     51 H11          0.0780    -1.5400    -2.0070 ha         1 E40       0.152000
     52 H12          1.6890     3.0140     0.8100 h1         1 E40       0.087700
     53 H13          2.9780     2.0340     2.4580 hc         1 E40       0.044033
     54 H14          4.4740     2.1890     1.5270 hc         1 E40       0.044033
     55 H15          3.7990     3.5970     2.3570 hc         1 E40       0.044033
     56 H16          4.1930     4.5850     0.2240 hc         1 E40       0.044033
     57 H17          2.5810     5.1760     0.6490 hc         1 E40       0.044033
     58 H18          2.8880     4.5290    -0.9690 hc         1 E40       0.044033
     59 H19          0.4080     0.9710    -2.2980 h1         1 E40       0.081700
     60 H20         -0.8030     2.9130    -3.4060 hn         1 E40       0.321500
     61 H21         -2.0050     4.7260    -2.8660 ho         1 E40       0.400000
     62 H22          2.8500     2.6540    -2.9630 hc         1 E40       0.073200
     63 H23          1.5410     2.2790    -4.0920 hc         1 E40       0.073200
     64 H24          2.0090    -0.1190    -3.8840 h1         1 E40       0.076200
     65 H25          3.2630     0.2100    -2.6810 h1         1 E40       0.076200
     66 H26          4.2080     0.9760    -8.8020 ha         1 E40       0.151000
     67 H27          6.5340     1.4010    -9.5120 ha         1 E40       0.142500
     68 H28          8.3160     1.6630    -7.8400 ha         1 E40       0.142500
     69 H29          7.7990     1.5080    -5.4310 ha         1 E40       0.151000
@<TRIPOS>BOND
     1    13    12 1
     2    12    11 1
     3    11    14 ar
     4    11    10 ar
     5    14    15 ar
     6    10     9 ar
     7    15     8 ar
     8    39    40 ar
     9    39    38 ar
    10     9     8 ar
    11     8     7 1
    12    40    36 ar
    13    38    37 ar
    14    27    26 1
    15     7    16 ar
    16     7     6 ar
    17    16    17 ar
    18    36    35 ar
    19    36    31 1
    20    37    35 ar
    21    32    31 2
    22    26    24 1
    23    35    33 1
    24    31    30 1
    25     6     5 ar
    26    17     4 ar
    27    25    24 2
    28    24    23 1
    29    33    30 1
    30    33    34 2
    31    30    29 1
    32     5     4 ar
    33     4     2 1
    34    23    28 1
    35    23    18 1
    36    29    28 1
    37    19    18 1
    38    19    20 1
    39     2     3 2
    40     2    18 1
    41     2     1 2
    42    21    20 1
    43    20    22 1
    44     5    41 1
    45     6    42 1
    46     9    43 1
    47    10    44 1
    48    13    45 1
    49    13    46 1
    50    13    47 1
    51    14    48 1
    52    15    49 1
    53    16    50 1
    54    17    51 1
    55    20    52 1
    56    21    53 1
    57    21    54 1
    58    21    55 1
    59    22    56 1
    60    22    57 1
    61    22    58 1
    62    23    59 1
    63    26    60 1
    64    27    61 1
    65    28    62 1
    66    28    63 1
    67    29    64 1
    68    29    65 1
    69    37    66 1
    70    38    67 1
    71    39    68 1
    72    40    69 1
@<TRIPOS>SUBSTRUCTURE
     1 E40         1 TEMP              0 ****  ****    0 ROOT
