@<TRIPOS>MOLECULE
E41
   55    56     1     0     0
SMALL
bcc


@<TRIPOS>ATOM
      1 O1           0.0000     0.0000     0.0000 oh         1 E41      -0.440100
      2 N1           1.4160     0.0000     0.0000 ns         1 E41      -0.061400
      3 N            4.0490    -0.5040     2.5070 n3         1 E41      -0.497500
      4 CA           3.5920    -0.1160     1.1700 c3         1 E41       0.160500
      5 C            2.0890     0.0000     1.1670 c          1 E41       0.569100
      6 O            1.4860     0.0930     2.2150 o          1 E41      -0.633100
      7 CB           4.2080     1.2330     0.7920 c3         1 E41      -0.124700
      8 CG1          5.7290     1.1560     0.9350 c3         1 E41      -0.002600
      9 CG2          3.8480     1.5700    -0.6560 c3         1 E41      -0.002600
     10 O3           5.0810     0.5180     4.5030 o          1 E41      -0.594800
     11 O4           3.2840     1.7220     3.2500 o          1 E41      -0.594800
     12 C6           2.6430    -0.1680     4.8490 ca         1 E41      -0.154500
     13 C7           3.0190    -1.1470     5.7670 ca         1 E41      -0.024000
     14 C8           2.1060    -1.7100     6.6050 ca         1 E41      -0.129000
     15 C9           1.3520     0.2570     4.7670 ca         1 E41       0.091000
     16 C10          0.3810    -0.3020     5.6170 ca         1 E41      -0.080000
     17 C11          0.7630    -1.3010     6.5450 ca         1 E41       0.005000
     18 C12         -0.2080    -1.8600     7.3940 ca         1 E41      -0.110000
     19 C13         -1.4990    -1.4390     7.3100 ca         1 E41      -0.080000
     20 C14         -1.8760    -0.4590     6.3920 ca         1 E41      -0.121000
     21 C15         -0.9610     0.1120     5.5620 ca         1 E41      -0.055000
     22 C16          6.1650    -1.7230     2.3700 c3         1 E41      -0.044400
     23 C17          6.8100    -3.0990     2.5390 c3         1 E41       0.033300
     24 C18          4.6770    -1.8110     2.7160 c3         1 E41       0.230800
     25 C19          6.2140    -4.0720     1.5190 c3         1 E41      -0.310600
     26 C20          8.3200    -2.9870     2.3140 c3         1 E41      -0.310600
     27 H1           1.9150    -0.0570    -0.8650 hn         1 E41       0.166500
     28 HA           3.8980    -0.8660     0.4510 h1         1 E41       0.043700
     29 H181         4.2010    -2.5460     2.0780 h1         1 E41       0.029700
     30 H182         4.5640    -2.1040     3.7520 h1         1 E41       0.029700
     31 HB           3.8220     2.0030     1.4490 hc         1 E41       0.113700
     32 HG11         5.9850     0.9260     1.9620 hc         1 E41       0.007033
     33 HG12         6.1660     2.1080     0.6590 hc         1 E41       0.007033
     34 HG13         6.1140     0.3800     0.2840 hc         1 E41       0.007033
     35 HG21         4.5200     2.3350    -1.0260 hc         1 E41       0.007033
     36 HG22         3.9410     0.6810    -1.2670 hc         1 E41       0.007033
     37 HG23         2.8280     1.9340    -0.6990 hc         1 E41       0.007033
     38 H7           4.0540    -1.4610     5.8180 ha         1 E41       0.112000
     39 H9           1.0980     1.0990     4.1350 ha         1 E41       0.147000
     40 H8           2.4130    -2.4700     7.3130 ha         1 E41       0.107000
     41 H15         -1.2680     0.8720     4.8540 ha         1 E41       0.112000
     42 H12          0.0700    -2.6220     8.1120 ha         1 E41       0.106000
     43 H13         -2.2470    -1.8790     7.9590 ha         1 E41       0.098000
     44 H14         -2.9110    -0.1420     6.3440 ha         1 E41       0.102000
     45 H161         6.2780    -1.3950     1.3440 hc         1 E41       0.036700
     46 H162         6.6480    -1.0140     3.0310 hc         1 E41       0.036700
     47 H17          6.6210    -3.4660     3.5410 hc         1 E41       0.003700
     48 H191         6.0550    -4.6410     2.4270 hc         1 E41       0.090867
     49 H192         7.1200    -3.7920     0.9960 hc         1 E41       0.090867
     50 H193         6.5390    -5.0490     1.1820 hc         1 E41       0.090867
     51 H201         8.7650    -3.9730     2.3530 hc         1 E41       0.090867
     52 H202         8.5080    -2.5430     1.3440 hc         1 E41       0.090867
     53 H203         8.7540    -2.3630     3.0860 hc         1 E41       0.090867
     54 H1O         -0.3140    -0.3420    -0.8200 ho         1 E41       0.389000
     55 S1           3.8560     0.5340     3.7830 sy         1 E41       1.058200
@<TRIPOS>BOND
     1     1     2 1   
     2     1    54 1   
     3     2     5 1   
     4     2    27 1   
     5     3     4 1   
     6     3    24 1   
     7     3    55 1   
     8     4     5 1   
     9     4     7 1   
    10     4    28 1   
    11     5     6 2   
    12     7     8 1   
    13     7     9 1   
    14     7    31 1   
    15     8    32 1   
    16     8    33 1   
    17     8    34 1   
    18     9    35 1   
    19     9    36 1   
    20     9    37 1   
    21    10    55 2   
    22    11    55 2   
    23    12    13 ar  
    24    12    15 ar  
    25    12    55 1   
    26    13    14 ar  
    27    13    38 1   
    28    14    17 ar  
    29    14    40 1   
    30    15    16 ar  
    31    15    39 1   
    32    16    17 ar  
    33    16    21 ar  
    34    17    18 ar  
    35    18    19 ar  
    36    18    42 1   
    37    19    20 ar  
    38    19    43 1   
    39    20    21 ar  
    40    20    44 1   
    41    21    41 1   
    42    22    23 1   
    43    22    24 1   
    44    22    45 1   
    45    22    46 1   
    46    23    25 1   
    47    23    26 1   
    48    23    47 1   
    49    24    29 1   
    50    24    30 1   
    51    25    48 1   
    52    25    49 1   
    53    25    50 1   
    54    26    51 1   
    55    26    52 1   
    56    26    53 1   
@<TRIPOS>SUBSTRUCTURE
     1 E41         1 TEMP              0 ****  ****    0 ROOT
