@<TRIPOS>MOLECULE
E42
   34    35     1     0     0
SMALL
bcc


@<TRIPOS>ATOM
      1 C1           0.0000     0.0000     0.0000 ca         1 E42      -0.082000
      2 C2           1.3800     0.0000     0.0000 ca         1 E42      -0.139300
      3 C3           2.0740     0.0000     1.1970 ca         1 E42      -0.126000
      4 C4           1.3910     0.0020     2.3990 ca         1 E42      -0.089000
      5 C5           0.0110     0.0020     2.4100 ca         1 E42      -0.093000
      6 C6          -0.6940     0.0020     1.2080 cp         1 E42      -0.015000
      7 C7          -4.9190     0.1030     1.2680 ca         1 E42      -0.125000
      8 C8          -4.2620    -0.0470     0.0580 ca         1 E42      -0.075000
      9 C9          -2.8770    -0.0350     0.0150 ca         1 E42      -0.102000
     10 C10         -2.1500     0.1270     1.1830 cp         1 E42      -0.031000
     11 C11         -2.8070     0.2770     2.3940 ca         1 E42      -0.131000
     12 C12         -4.1920     0.2650     2.4370 ca         1 E42       0.119100
     13 O1          -4.8570     0.4420     3.6570 oh         1 E42      -0.505100
     14 C13          2.1440    -0.0880    -1.3220 c3         1 E42       0.050900
     15 C14          2.2190     1.2980    -1.9600 c3         1 E42      -0.226500
     16 N1           3.2760     2.0660    -1.3270 nz         1 E42       0.105400
     17 C15          2.5180     1.1560    -3.4510 c          1 E42       0.961600
     18 O2           1.5710     1.1240    -4.2830 o          1 E42      -0.814800
     19 O3           3.7080     1.0420    -3.8480 o          1 E42      -0.814800
     20 H1          -0.5410    -0.0330    -0.9380 ha         1 E42       0.132000
     21 H2           3.1570    -0.0450     1.1940 ha         1 E42       0.096000
     22 H3           1.9390     0.0020     3.3330 ha         1 E42       0.107000
     23 H4          -0.5220    -0.0330     3.3530 ha         1 E42       0.118000
     24 H8          -2.2380     0.4160     3.3060 ha         1 E42       0.122000
     25 H9          -5.0470    -0.3990     4.0360 ho         1 E42       0.401000
     26 H10          3.1460    -0.4550    -1.1360 hc         1 E42       0.050700
     27 H11          1.6300    -0.7670    -1.9920 hc         1 E42       0.050700
     28 H12          1.2730     1.8080    -1.8290 hx         1 E42       0.089700
     29 H13          4.0870     1.4900    -1.2180 hn         1 E42       0.207467
     30 H14          3.5010     2.8570    -1.8970 hn         1 E42       0.207467
     31 H5          -6.0020     0.1150     1.2990 ha         1 E42       0.116000
     32 H6          -4.8310    -0.1680    -0.8560 ha         1 E42       0.109000
     33 H131         2.9440     2.4350    -0.4570 hn         1 E42       0.207467
     34 H7          -2.3630    -0.1690    -0.9290 ha         1 E42       0.118000
@<TRIPOS>BOND
     1     1     2 ar  
     2     1     6 ar  
     3     1    20 1   
     4     2     3 ar  
     5     2    14 1   
     6     3     4 ar  
     7     3    21 1   
     8     4     5 ar  
     9     4    22 1   
    10     5     6 ar  
    11     5    23 1   
    12     6    10 1   
    13     7     8 ar  
    14     7    12 ar  
    15     7    31 1   
    16     8     9 ar  
    17     8    32 1   
    18     9    10 ar  
    19     9    34 1   
    20    10    11 ar  
    21    11    12 ar  
    22    11    24 1   
    23    12    13 1   
    24    13    25 1   
    25    14    15 1   
    26    14    26 1   
    27    14    27 1   
    28    15    16 1   
    29    15    17 1   
    30    15    28 1   
    31    16    29 1   
    32    16    30 1   
    33    16    33 1   
    34    17    18 1   
    35    17    19 1   
@<TRIPOS>SUBSTRUCTURE
     1 E42         1 TEMP              0 ****  ****    0 ROOT
