@<TRIPOS>MOLECULE
E44
   38    41     1     0     0
SMALL
bcc


@<TRIPOS>ATOM
      1 C1           0.0000     0.0000     0.0000 ca         1 E44       0.609000
      2 C2           1.9920     0.0000     1.1550 ca         1 E44       0.289300
      3 C3           3.3970     0.0010     1.1950 ca         1 E44      -0.112300
      4 C4           4.0060     0.0000     2.4190 ca         1 E44      -0.196300
      5 C5           3.2350     0.0000     3.5790 ca         1 E44       0.407200
      6 C6           1.2730    -0.0000     2.3730 ca         1 E44       0.132000
      7 C7          -0.1450     0.0050     2.3080 ca         1 E44       0.514900
      8 C8          -1.2630    -1.2020     4.0760 ca         1 E44       0.046600
      9 C9          -1.0890    -2.3950     3.3830 ca         1 E44      -0.125000
     10 C10         -1.4280    -3.5950     3.9730 ca         1 E44      -0.170000
     11 C11         -1.9430    -3.6090     5.2620 ca         1 E44       0.108100
     12 C12         -2.0710    -5.9770     5.0760 c3         1 E44       0.244700
     13 C13         -2.1170    -2.4220     5.9530 ca         1 E44      -0.106000
     14 C14         -1.7760    -1.2150     5.3630 ca         1 E44      -0.102300
     15 C15         -1.9880     0.0590     6.1390 c3         1 E44       0.044900
     16 C16         -1.1190     1.1810     5.5730 c3         1 E44      -0.047400
     17 C17         -1.3490     1.2690     4.0570 c3         1 E44       0.189800
     18 N1           1.3140     0.0000     0.0000 nb         1 E44      -0.585000
     19 N2           1.9230    -0.0010     3.5350 nb         1 E44      -0.530000
     20 N3          -0.9060     0.0050     3.4580 nh         1 E44      -0.343700
     21 N4          -0.7180     0.0050     1.1130 nb         1 E44      -0.604000
     22 Cl1         -0.8310     0.0020    -1.5240 cl         1 E44      -0.042000
     23 H1           3.9810     0.0010     0.2830 ha         1 E44       0.127000
     24 H2           5.0870     0.0020     2.4870 ha         1 E44       0.117000
     25 H3           3.7300    -0.0000     4.5430 h4         1 E44      -0.015900
     26 H4          -0.6870    -2.3820     2.3770 ha         1 E44       0.108000
     27 H5          -1.2920    -4.5240     3.4320 ha         1 E44       0.117000
     28 H6          -2.6600    -5.9250     4.1690 h1         1 E44      -0.004633
     29 H7          -2.4180    -6.8030     5.6860 h1         1 E44      -0.004633
     30 H8          -1.0290    -6.1290     4.8220 h1         1 E44      -0.004633
     31 H9          -2.5180    -2.4370     6.9590 ha         1 E44       0.116000
     32 H10         -3.0300     0.3470     6.0720 hc         1 E44       0.021200
     33 H11         -1.7230    -0.1080     7.1760 hc         1 E44       0.021200
     34 H12         -1.3950     2.1210     6.0350 hc         1 E44       0.026700
     35 H13         -0.0760     0.9660     5.7690 hc         1 E44       0.026700
     36 H14         -2.4030     1.4190     3.8560 h1         1 E44       0.017700
     37 H15         -0.7720     2.0890     3.6480 h1         1 E44       0.017700
     38 O1          -2.2760    -4.7910     5.8460 os         1 E44      -0.308900
@<TRIPOS>BOND
     1     1    18 ar  
     2     1    21 ar  
     3     1    22 1   
     4     2     3 ar  
     5     2     6 ar  
     6     2    18 ar  
     7     3     4 ar  
     8     3    23 1   
     9     4     5 ar  
    10     4    24 1   
    11     5    19 ar  
    12     5    25 1   
    13     6     7 ar  
    14     6    19 ar  
    15     7    20 1   
    16     7    21 ar  
    17     8     9 ar  
    18     8    14 ar  
    19     8    20 1   
    20     9    10 ar  
    21     9    26 1   
    22    10    11 ar  
    23    10    27 1   
    24    11    13 ar  
    25    11    38 1   
    26    12    28 1   
    27    12    29 1   
    28    12    30 1   
    29    12    38 1   
    30    13    14 ar  
    31    13    31 1   
    32    14    15 1   
    33    15    16 1   
    34    15    32 1   
    35    15    33 1   
    36    16    17 1   
    37    16    34 1   
    38    16    35 1   
    39    17    20 1   
    40    17    36 1   
    41    17    37 1   
@<TRIPOS>SUBSTRUCTURE
     1 E44         1 TEMP              0 ****  ****    0 ROOT
