@<TRIPOS>MOLECULE
molecule
   47    50     1     0     0
SMALL
bcc


@<TRIPOS>ATOM
      1 FAA          0.0000     0.0000     0.0000 f          1 E46      -0.203967
      2 CBB          1.3990     0.0000     0.0000 c3         1 E46       0.796700
      3 FAB          1.8650     0.0000     1.3190 f          1 E46      -0.203967
      4 FAC          1.8650    -1.1430    -0.6600 f          1 E46      -0.203967
      5 OAT          1.8750     1.1670    -0.6740 os         1 E46      -0.336900
      6 CAU          1.5100     2.3690    -0.1570 ca         1 E46       0.135100
      7 CAI          1.9370     3.5420    -0.7610 ca         1 E46      -0.135000
      8 CAE          0.7050     2.4240     0.9720 ca         1 E46      -0.206000
      9 CAD          0.3320     3.6470     1.4980 ca         1 E46      -0.080000
     10 CAF          0.7600     4.8180     0.9020 ca         1 E46      -0.146000
     11 CAW          1.5620     4.7680    -0.2310 ca         1 E46       0.066800
     12 NBA          1.9910     5.9560    -0.8390 na         1 E46       0.022100
     13 NAP          3.2260     6.1760    -1.4680 nc         1 E46      -0.141400
     14 NAO          3.2720     7.3830    -1.9110 nd         1 E46      -0.185400
     15 CAX          2.1190     8.0280    -1.6230 ca         1 E46      -0.152900
     16 CAH          1.6560     9.3300    -1.8750 ca         1 E46       0.026000
     17 CAG          0.4080     9.6730    -1.4370 ca         1 E46      -0.331300
     18 CAY          1.2820     7.1290    -0.9400 ca         1 E46       0.497800
     19 NAQ          0.0750     7.5060    -0.5400 nb         1 E46      -0.797000
     20 CAV         -0.3700     8.7310    -0.7590 ca         1 E46       0.752200
     21 NAS         -1.6390     9.0840    -0.3180 nu         1 E46      -0.908900
     22 CAN         -2.1500    10.4360    -0.5650 c3         1 E46       0.239800
     23 CAZ         -3.5580    10.5620     0.0190 c3         1 E46      -0.089700
     24 CAL         -4.1420    11.9300    -0.3450 c3         1 E46      -0.073400
     25 CAM         -3.4940    10.4330     1.5440 c3         1 E46      -0.073400
     26 CAK         -4.8960    10.6220     2.1270 c3         1 E46       0.158800
     27 NAR         -5.4110    11.9450     1.7510 n7         1 E46      -0.818200
     28 CAJ         -5.5260    12.0740     0.2920 c3         1 E46       0.158800
     29 HAI          2.5620     3.5010    -1.6440 ha         1 E46       0.169000
     30 HAE          0.3670     1.5080     1.4410 ha         1 E46       0.152000
     31 HAD         -0.2950     3.6870     2.3800 ha         1 E46       0.144000
     32 HAF          0.4670     5.7750     1.3170 ha         1 E46       0.161000
     33 HAH          2.2750    10.0460    -2.4020 ha         1 E46       0.154000
     34 HAG          0.0270    10.6720    -1.6080 ha         1 E46       0.148000
     35 HAS         -2.2210     8.4030     0.1260 hn         1 E46       0.453800
     36 HAN1        -1.4970    11.1600    -0.0930 h1         1 E46       0.046200
     37 HAN2        -2.1830    10.6200    -1.6320 h1         1 E46       0.046200
     38 HAZ         -4.1930     9.7810    -0.3820 hc         1 E46       0.056700
     39 HAL1        -4.2320    12.0080    -1.4220 hc         1 E46       0.052450
     40 HAL2        -3.4910    12.7110     0.0270 hc         1 E46       0.052450
     41 HAM1        -2.8330    11.1930     1.9430 hc         1 E46       0.052450
     42 HAM2        -3.1230     9.4500     1.8080 hc         1 E46       0.052450
     43 HAJ1        -6.1800    11.2980    -0.0870 h1         1 E46       0.033950
     44 HAJ2        -5.9340    13.0480     0.0490 h1         1 E46       0.033950
     45 HAK1        -4.8500    10.5480     3.2070 h1         1 E46       0.033950
     46 HAK2        -5.5540     9.8560     1.7360 h1         1 E46       0.033950
     47 HAR         -6.3080    12.0860     2.1710 hn         1 E46       0.356800
@<TRIPOS>BOND
     1     1     2 1
     2     2     3 1
     3     2     4 1
     4     2     5 1
     5     5     6 1
     6     6     7 ar
     7     6     8 ar
     8     7    11 ar
     9     8     9 ar
    10     9    10 ar
    11    10    11 ar
    12    11    12 1
    13    12    13 1
    14    12    18 1
    15    13    14 2
    16    14    15 1
    17    15    16 ar
    18    15    18 ar
    19    16    17 ar
    20    17    20 ar
    21    18    19 ar
    22    19    20 ar
    23    20    21 1
    24    21    22 1
    25    22    23 1
    26    23    24 1
    27    23    25 1
    28    24    28 1
    29    25    26 1
    30    26    27 1
    31    27    28 1
    32     7    29 1
    33     8    30 1
    34     9    31 1
    35    10    32 1
    36    16    33 1
    37    17    34 1
    38    21    35 1
    39    22    36 1
    40    22    37 1
    41    23    38 1
    42    24    39 1
    43    24    40 1
    44    25    41 1
    45    25    42 1
    46    28    43 1
    47    28    44 1
    48    26    45 1
    49    26    46 1
    50    27    47 1
@<TRIPOS>SUBSTRUCTURE
     1 E46         1 TEMP              0 ****  ****    0 ROOT
