@<TRIPOS>MOLECULE
molecule
   38    39     1     0     0
SMALL
bcc


@<TRIPOS>ATOM
      1 N1           0.0000     0.0000     0.0000 nb         1 E49      -0.753000
      2 C2           1.3260     0.0000     0.0000 ca         1 E49       0.775300
      3 N3           2.0190     0.0000     1.1290 nb         1 E49      -0.753000
      4 C4           1.4050    -0.0010     2.3000 ca         1 E49       0.483600
      5 C5           0.0190    -0.0000     2.3370 ca         1 E49      -0.379600
      6 C6          -0.6750     0.0010     1.1370 ca         1 E49       0.483600
      7 S7           2.1860    -0.0010    -1.5380 ss         1 E49      -0.160400
      8 C8           3.8950    -0.0010    -0.9420 c3         1 E49      -0.131300
      9 C9           4.8370    -0.0010    -2.1190 c          1 E49       0.578700
     10 O10          4.3960    -0.0010    -3.2480 o          1 E49      -0.475100
     11 C11          2.2010    -0.0010     3.5800 c3         1 E49      -0.145400
     12 C12         -2.1830     0.0010     1.1280 c3         1 E49      -0.145400
     13 C13          6.2900    -0.0020    -1.8960 ca         1 E49      -0.165600
     14 C14          7.1690     0.0040    -2.9860 ca         1 E49       0.045000
     15 C15          8.5300     0.0040    -2.7700 ca         1 E49      -0.349500
     16 C16          9.0300    -0.0020    -1.4780 ca         1 E49       0.103400
     17 C17          8.1670    -0.0060    -0.3940 ca         1 E49      -0.122000
     18 C18          6.8040    -0.0010    -0.5940 ca         1 E49       0.004000
     19 S19          9.6370     0.0100    -4.1400 sy         1 E49       1.241200
     20 O20         10.5920    -1.0120    -3.8900 o          1 E49      -0.506300
     21 O22          8.8290     0.0480    -5.3090 o          1 E49      -0.506300
     22 N23         10.4640     1.4440    -4.0970 nz         1 E49      -0.811500
     23 H5          -0.5100    -0.0000     3.2820 ha         1 E49       0.155000
     24 H8           4.0680    -0.8860    -0.3410 h1         1 E49       0.101200
     25 H8A          4.0690     0.8830    -0.3410 h1         1 E49       0.101200
     26 H11          3.1190    -0.5580     3.4350 hc         1 E49       0.060867
     27 H11A         1.6180    -0.4640     4.3680 hc         1 E49       0.060867
     28 H11B         2.4370     1.0190     3.8590 hc         1 E49       0.060867
     29 H12         -2.5470    -0.9030     1.6020 hc         1 E49       0.060867
     30 H12A        -2.5470     0.8650     1.6710 hc         1 E49       0.060867
     31 H12B        -2.5380     0.0410     0.1050 hc         1 E49       0.060867
     32 H14          6.7800     0.0080    -3.9970 ha         1 E49       0.196000
     33 H17          8.5640    -0.0080     0.6140 ha         1 E49       0.180000
     34 H18          6.1300    -0.0050     0.2540 ha         1 E49       0.179000
     35 HN23         9.8320     2.1870    -3.8730 hn         1 E49       0.494800
     36 HN2A        11.1810     1.3940    -3.4010 hn         1 E49       0.494800
     37 Cl21        10.7460    -0.0010    -1.2150 cl         1 E49      -0.072400
     38 H233        10.8790     1.6170    -4.9920 hn         1 E49       0.494800
@<TRIPOS>BOND
     1     1     6 ar
     2     1     2 ar
     3     2     3 ar
     4     3     4 ar
     5     4    11 1
     6     5     4 ar
     7     6     5 ar
     8     7     2 1
     9     7     8 1
    10     8     9 1
    11     9    13 1
    12    10     9 2
    13    12     6 1
    14    13    18 ar
    15    13    14 ar
    16    14    15 ar
    17    15    16 ar
    18    15    19 1
    19    17    16 ar
    20    18    17 ar
    21    19    20 2
    22    19    21 2
    23    22    19 1
    24     5    23 1
    25     8    24 1
    26     8    25 1
    27    11    26 1
    28    11    27 1
    29    11    28 1
    30    12    29 1
    31    12    30 1
    32    12    31 1
    33    14    32 1
    34    17    33 1
    35    18    34 1
    36    22    35 1
    37    22    36 1
    38    16    37 1
    39    38    22 1
@<TRIPOS>SUBSTRUCTURE
     1 E49         1 TEMP              0 ****  ****    0 ROOT
