@<TRIPOS>MOLECULE
E49
   38    39     1     0     0
SMALL
bcc


@<TRIPOS>ATOM
      1 N1           0.0000     0.0000     0.0000 nb         1 E49      -0.631000
      2 C2           1.3260     0.0000     0.0000 ca         1 E49       0.736300
      3 N3           2.0190     0.0000     1.1290 nb         1 E49      -0.631000
      4 C4           1.4050    -0.0010     2.3000 ca         1 E49       0.434600
      5 C5           0.0190    -0.0000     2.3370 ca         1 E49      -0.341600
      6 C6          -0.6750     0.0010     1.1370 ca         1 E49       0.434600
      7 S7           2.1860    -0.0010    -1.5380 ss         1 E49      -0.314400
      8 C8           3.8950    -0.0010    -0.9420 c3         1 E49      -0.031300
      9 C9           4.8370    -0.0010    -2.1190 c          1 E49       0.624700
     10 O10          4.3960    -0.0010    -3.2480 o          1 E49      -0.493100
     11 C11          2.2010    -0.0010     3.5800 c3         1 E49      -0.042400
     12 C12         -2.1830     0.0010     1.1280 c3         1 E49      -0.042400
     13 C13          6.2900    -0.0020    -1.8960 ca         1 E49      -0.179600
     14 C14          7.1690     0.0040    -2.9860 ca         1 E49       0.093000
     15 C15          8.5300     0.0040    -2.7700 ca         1 E49      -0.231500
     16 C16          9.0300    -0.0020    -1.4780 ca         1 E49       0.034400
     17 C17          8.1670    -0.0060    -0.3940 ca         1 E49      -0.101000
     18 C18          6.8040    -0.0010    -0.5940 ca         1 E49       0.038000
     19 S19          9.6370     0.0100    -4.1400 sy         1 E49       0.941200
     20 O20         10.5920    -1.0120    -3.8900 o          1 E49      -0.486800
     21 O22          8.8290     0.0480    -5.3090 o          1 E49      -0.486800
     22 N23         10.4640     1.4440    -4.0970 nz         1 E49      -0.145500
     23 H5          -0.5100    -0.0000     3.2820 ha         1 E49       0.136000
     24 H8           4.0680    -0.8860    -0.3410 h1         1 E49       0.069700
     25 H8A          4.0690     0.8830    -0.3410 h1         1 E49       0.069700
     26 H11          3.1190    -0.5580     3.4350 hc         1 E49       0.021200
     27 H11A         1.6180    -0.4640     4.3680 hc         1 E49       0.021200
     28 H11B         2.4370     1.0190     3.8590 hc         1 E49       0.021200
     29 H12         -2.5470    -0.9030     1.6020 hc         1 E49       0.021200
     30 H12A        -2.5470     0.8650     1.6710 hc         1 E49       0.021200
     31 H12B        -2.5380     0.0410     0.1050 hc         1 E49       0.021200
     32 H14          6.7800     0.0080    -3.9970 ha         1 E49       0.159000
     33 H17          8.5640    -0.0080     0.6140 ha         1 E49       0.143000
     34 H18          6.1300    -0.0050     0.2540 ha         1 E49       0.136000
     35 HN23         9.8320     2.1870    -3.8730 hn         1 E49       0.317467
     36 HN2A        11.1810     1.3940    -3.4010 hn         1 E49       0.317467
     37 Cl21        10.7460    -0.0010    -1.2150 cl         1 E49       0.029600
     38 H233        10.8790     1.6170    -4.9920 hn         1 E49       0.317467
@<TRIPOS>BOND
     1     1     2 ar  
     2     1     6 ar  
     3     2     3 ar  
     4     2     7 1   
     5     3     4 ar  
     6     4     5 ar  
     7     4    11 1   
     8     5     6 ar  
     9     5    23 1   
    10     6    12 1   
    11     7     8 1   
    12     8     9 1   
    13     8    24 1   
    14     8    25 1   
    15     9    10 2   
    16     9    13 1   
    17    11    26 1   
    18    11    27 1   
    19    11    28 1   
    20    12    29 1   
    21    12    30 1   
    22    12    31 1   
    23    13    14 ar  
    24    13    18 ar  
    25    14    15 ar  
    26    14    32 1   
    27    15    16 ar  
    28    15    19 1   
    29    16    17 ar  
    30    16    37 1   
    31    17    18 ar  
    32    17    33 1   
    33    18    34 1   
    34    19    20 2   
    35    19    21 2   
    36    19    22 1   
    37    22    35 1   
    38    22    36 1   
    39    22    38 1   
@<TRIPOS>SUBSTRUCTURE
     1 E49         1 TEMP              0 ****  ****    0 ROOT
