@<TRIPOS>MOLECULE
molecule
   22    22     1     0     0
SMALL
bcc


@<TRIPOS>ATOM
      1 C1           0.0000     0.0000     0.0000 c3         1 E4B      -0.096100
      2 C6           1.5300     0.0000     0.0000 c3         1 E4B       0.147400
      3 O1           2.0140     0.0000     1.3690 os         1 E4B      -0.431900
      4 C7           3.3500     0.0000     1.5450 c          1 E4B       0.651700
      5 O2           4.0900    -0.0000     0.5810 o          1 E4B      -0.552000
      6 C9           3.9140     0.0010     2.9070 ca         1 E4B      -0.145600
      7 C4           5.3000     0.0000     3.0920 ca         1 E4B      -0.058500
      8 C2           5.8220     0.0010     4.3660 ca         1 E4B      -0.172000
      9 C8           4.9740     0.0020     5.4670 ca         1 E4B       0.137100
     10 O3           5.4930     0.0020     6.7220 oh         1 E4B      -0.522100
     11 C3           3.5960     0.0020     5.2880 ca         1 E4B      -0.172000
     12 C5           3.0650     0.0070     4.0180 ca         1 E4B      -0.058500
     13 H1          -0.3610     0.8850     0.5100 hc         1 E4B       0.047367
     14 H2          -0.3610    -0.8840     0.5110 hc         1 E4B       0.047367
     15 H3          -0.3610    -0.0000    -1.0210 hc         1 E4B       0.047367
     16 H4           1.8910     0.8850    -0.5110 h1         1 E4B       0.050200
     17 H5           1.8910    -0.8850    -0.5110 h1         1 E4B       0.050200
     18 H6           5.9620    -0.0010     2.2340 ha         1 E4B       0.155500
     19 H7           6.8960     0.0000     4.5100 ha         1 E4B       0.147000
     20 H8           5.6140    -0.8870     7.0120 ho         1 E4B       0.425000
     21 H9           2.9390     0.0050     6.1490 ha         1 E4B       0.147000
     22 H10          1.9910     0.0070     3.8790 ha         1 E4B       0.155500
@<TRIPOS>BOND
     1     1     2 1
     2     2     3 1
     3     3     4 1
     4     4     5 2
     5     4     6 1
     6    12     6 ar
     7    12    11 ar
     8     6     7 ar
     9    11     9 ar
    10     7     8 ar
    11     9     8 ar
    12     9    10 1
    13     1    13 1
    14     1    14 1
    15     1    15 1
    16     2    16 1
    17     2    17 1
    18     7    18 1
    19     8    19 1
    20    10    20 1
    21    11    21 1
    22    12    22 1
@<TRIPOS>SUBSTRUCTURE
     1 E4B         1 TEMP              0 ****  ****    0 ROOT
