@<TRIPOS>MOLECULE
E4B
   22    22     1     0     0
SMALL
bcc


@<TRIPOS>ATOM
      1 C1          0.0520    0.0810    0.1090 c3        1 E4B     -0.101100
      2 C6          1.5560    0.0290   -0.0040 c3        1 E4B      0.140400
      3 O1          2.0600    0.0050    1.3440 os        1 E4B     -0.443900
      4 C7          3.4220   -0.0430    1.4810 c         1 E4B      0.651700
      5 O2          4.1050   -0.0630    0.4510 o         1 E4B     -0.552000
      6 C9          3.8910   -0.0660    2.8710 ca        1 E4B     -0.173600
      7 C4          5.2710   -0.1170    3.1090 ca        1 E4B     -0.034000
      8 C2          5.7550   -0.1410    4.4120 ca        1 E4B     -0.205500
      9 C8          4.8470   -0.1120    5.4820 ca        1 E4B      0.158100
     10 O3          5.2490   -0.1320    6.7950 oh        1 E4B     -0.491100
     11 C3          3.4600   -0.0600    5.2540 ca        1 E4B     -0.205500
     12 C5          2.9920   -0.0380    3.9460 ca        1 E4B     -0.034000
     13 H1         -0.2690    0.9950    0.6640 hc        1 E4B      0.047700
     14 H2         -0.3880    0.1020   -0.9160 hc        1 E4B      0.047700
     15 H3         -0.3320   -0.8140    0.6550 hc        1 E4B      0.047700
     16 H4          1.9700    0.9310   -0.5260 h1        1 E4B      0.052700
     17 H5          1.9070   -0.8940   -0.5350 h1        1 E4B      0.052700
     18 H6          5.9660   -0.1390    2.2530 ha        1 E4B      0.158500
     19 H7          6.8370   -0.1810    4.6030 ha        1 E4B      0.149000
     20 H8          6.2180   -0.1670    6.8140 ho        1 E4B      0.425000
     21 H9          2.7700   -0.0380    6.1090 ha        1 E4B      0.149000
     22 H10         1.9080    0.0030    3.7480 ha        1 E4B      0.158500
@<TRIPOS>BOND
     1    1    2 1   
     2    1   13 1   
     3    1   14 1   
     4    1   15 1   
     5    2    3 1   
     6    2   16 1   
     7    2   17 1   
     8    3    4 1   
     9    4    5 2   
    10    4    6 1   
    11    6    7 ar  
    12    6   12 ar  
    13    7    8 ar  
    14    7   18 1   
    15    8    9 ar  
    16    8   19 1   
    17    9   10 1   
    18    9   11 ar  
    19   10   20 1   
    20   11   12 ar  
    21   11   21 1   
    22   12   22 1   
@<TRIPOS>SUBSTRUCTURE
     1 E4B         1 TEMP              0 ****  ****    0 ROOT
