@<TRIPOS>MOLECULE
E4D
   62    66     1     0     0
SMALL
bcc


@<TRIPOS>ATOM
      1 C1           0.0000     0.0000     0.0000 c3         1 E4D       0.095700
      2 C2           1.5380     0.0000     0.0000 c3         1 E4D       0.233400
      3 O3           1.9940     0.0000     1.3370 os         1 E4D      -0.268900
      4 C4           1.7140     1.1430     2.0000 ca         1 E4D       0.119100
      5 C5           2.5960     1.4660     3.0370 ca         1 E4D      -0.112000
      6 C6           2.3930     2.5740     3.8270 ca         1 E4D      -0.102000
      7 C7           1.2990     3.3970     3.6010 ca         1 E4D       0.100100
      8 O8           1.0870     4.4870     4.3850 oh         1 E4D      -0.494100
      9 C9           0.4250     3.0970     2.5720 ca         1 E4D      -0.083000
     10 C10          0.6340     1.9780     1.7680 ca         1 E4D      -0.005100
     11 S11         -0.5190     1.6800     0.4630 ss         1 E4D      -0.315000
     12 C12         -0.5150    -0.9950     1.0070 ca         1 E4D      -0.104300
     13 C13         -0.5360    -0.6690     2.3510 ca         1 E4D      -0.081000
     14 C14         -1.0150    -1.5760     3.2750 ca         1 E4D      -0.134500
     15 C15         -1.4630    -2.8210     2.8560 ca         1 E4D       0.127100
     16 O16         -1.9280    -3.7180     3.7640 oh         1 E4D      -0.501100
     17 C17         -1.4390    -3.1460     1.5070 ca         1 E4D      -0.134500
     18 C18         -0.9650    -2.2320     0.5860 ca         1 E4D      -0.081000
     19 C19          2.0440    -1.2310    -0.7070 ca         1 E4D      -0.157300
     20 C20          2.2820    -1.1960    -2.0670 ca         1 E4D      -0.038000
     21 C21          2.7510    -2.3220    -2.7160 ca         1 E4D      -0.186500
     22 C22          2.9710    -3.4900    -2.0030 ca         1 E4D       0.142100
     23 C23          2.7250    -3.5240    -0.6380 ca         1 E4D      -0.186500
     24 C24          2.2620    -2.3940     0.0070 ca         1 E4D      -0.038000
     25 O25          3.4270    -4.6010    -2.6410 os         1 E4D      -0.255900
     26 C26          3.5810    -4.2530    -4.0180 c3         1 E4D       0.164400
     27 C27          4.0940    -5.4660    -4.7960 c3         1 E4D       0.130800
     28 N28          3.1310    -6.5690    -4.6740 n3         1 E4D      -0.503600
     29 C29          1.9060    -6.1380    -5.3530 c3         1 E4D       0.133300
     30 C30          0.8540    -7.2440    -5.2730 c3         1 E4D      -0.023900
     31 C31          1.3810    -8.4950    -5.9830 c3         1 E4D      -0.027400
     32 C32          2.7260    -8.8860    -5.3640 c3         1 E4D      -0.023900
     33 C33          3.6810    -7.6940    -5.4380 c3         1 E4D       0.133300
     34 H1          -0.3690    -0.2410    -0.9900 h1         1 E4D       0.081700
     35 H2           1.8990     0.8880    -0.5050 h1         1 E4D       0.040700
     36 H5           3.4540     0.8300     3.2230 ha         1 E4D       0.121000
     37 H6           3.0860     2.8020     4.6280 ha         1 E4D       0.117000
     38 HO8          1.4900     5.2420     3.9900 ho         1 E4D       0.402000
     39 H9          -0.4300     3.7360     2.3910 ha         1 E4D       0.128000
     40 H13         -0.1870     0.3030     2.6770 ha         1 E4D       0.124000
     41 H14         -1.0320    -1.3200     4.3270 ha         1 E4D       0.115500
     42 H16         -2.8560    -3.5960     3.8790 ho         1 E4D       0.403000
     43 H17         -1.7900    -4.1160     1.1770 ha         1 E4D       0.115500
     44 H18         -0.9460    -2.4860    -0.4670 ha         1 E4D       0.124000
     45 H20          2.1100    -0.2830    -2.6240 ha         1 E4D       0.114000
     46 H21          2.9400    -2.2940    -3.7820 ha         1 E4D       0.127000
     47 H23          2.8970    -4.4360    -0.0790 ha         1 E4D       0.127000
     48 H24          2.0700    -2.4200     1.0730 ha         1 E4D       0.114000
     49 H261         4.2910    -3.4390    -4.1080 h1         1 E4D       0.015700
     50 H262         2.6240    -3.9430    -4.4210 h1         1 E4D       0.015700
     51 H271         5.0500    -5.7750    -4.3930 h1         1 E4D       0.020200
     52 H272         4.2100    -5.2020    -5.8410 h1         1 E4D       0.020200
     53 H291         2.1270    -5.9270    -6.3920 h1         1 E4D       0.011450
     54 H292         1.5240    -5.2450    -4.8720 h1         1 E4D       0.011450
     55 H301         0.6520    -7.4760    -4.2350 hc         1 E4D       0.020950
     56 H302        -0.0560    -6.9110    -5.7580 hc         1 E4D       0.020950
     57 H311         0.6750    -9.3070    -5.8580 hc         1 E4D       0.012700
     58 H312         1.5160    -8.2830    -7.0370 hc         1 E4D       0.012700
     59 H321         3.1470    -9.7200    -5.9130 hc         1 E4D       0.020950
     60 H322         2.5780    -9.1660    -4.3280 hc         1 E4D       0.020950
     61 H331         4.6400    -7.9770    -5.0200 h1         1 E4D       0.011450
     62 H332         3.8060    -7.3980    -6.4720 h1         1 E4D       0.011450
@<TRIPOS>BOND
     1     1     2 1   
     2     1    11 1   
     3     1    12 1   
     4     1    34 1   
     5     2     3 1   
     6     2    19 1   
     7     2    35 1   
     8     3     4 1   
     9     4     5 ar  
    10     4    10 ar  
    11     5     6 ar  
    12     5    36 1   
    13     6     7 ar  
    14     6    37 1   
    15     7     8 1   
    16     7     9 ar  
    17     8    38 1   
    18     9    10 ar  
    19     9    39 1   
    20    10    11 1   
    21    12    13 ar  
    22    12    18 ar  
    23    13    14 ar  
    24    13    40 1   
    25    14    15 ar  
    26    14    41 1   
    27    15    16 1   
    28    15    17 ar  
    29    16    42 1   
    30    17    18 ar  
    31    17    43 1   
    32    18    44 1   
    33    19    20 ar  
    34    19    24 ar  
    35    20    21 ar  
    36    20    45 1   
    37    21    22 ar  
    38    21    46 1   
    39    22    23 ar  
    40    22    25 1   
    41    23    24 ar  
    42    23    47 1   
    43    24    48 1   
    44    25    26 1   
    45    26    27 1   
    46    26    49 1   
    47    26    50 1   
    48    27    28 1   
    49    27    51 1   
    50    27    52 1   
    51    28    29 1   
    52    28    33 1   
    53    29    30 1   
    54    29    53 1   
    55    29    54 1   
    56    30    31 1   
    57    30    55 1   
    58    30    56 1   
    59    31    32 1   
    60    31    57 1   
    61    31    58 1   
    62    32    33 1   
    63    32    59 1   
    64    32    60 1   
    65    33    61 1   
    66    33    62 1   
@<TRIPOS>SUBSTRUCTURE
     1 E4D         1 TEMP              0 ****  ****    0 ROOT
