@<TRIPOS>MOLECULE
molecule
   56    59     1     0     0
SMALL
bcc


@<TRIPOS>ATOM
      1 C1           0.0000     0.0000     0.0000 ca         1 E4F      -0.142000
      2 C2           1.3820     0.0000     0.0000 ca         1 E4F      -0.149000
      3 C3          -0.6910     0.0050     1.1960 ca         1 E4F      -0.120000
      4 C4           2.0710     0.0000     1.1980 ca         1 E4F      -0.092000
      5 C5           3.3560     2.6160     2.2630 ca         1 E4F      -0.116000
      6 C6           4.4360     2.9810     1.4750 ca         1 E4F      -0.145000
      7 C7           4.8190     1.3390     3.6800 ca         1 E4F      -0.075600
      8 C8          -0.0020     0.0090     2.3970 ca         1 E4F      -0.102300
      9 C9           1.3820    -0.0020     2.3980 ca         1 E4F      -0.054300
     10 C10          3.5390     1.8020     3.3600 ca         1 E4F      -0.044300
     11 C11          5.7090     2.5270     1.7760 ca         1 E4F       0.032100
     12 C12          5.9070     1.6980     2.8780 ca         1 E4F       0.068100
     13 C15         -0.5130     0.0140     3.8220 c3         1 E4F      -0.045100
     14 C16          7.7800     1.7030     1.6650 c3         1 E4F       0.327200
     15 C17          1.8930     0.0060     3.8220 c3         1 E4F       0.008600
     16 C18          0.6900    -0.4230     4.6850 c3         1 E4F       0.116700
     17 C19          2.3590     1.4100     4.2120 c3         1 E4F      -0.209100
     18 C20          0.0170     0.4810     8.3440 c3         1 E4F      -0.161400
     19 C21         -0.8130    -0.3120     9.3560 c3         1 E4F      -0.058400
     20 C22         -0.8130     0.4200    10.6990 c3         1 E4F      -0.116400
     21 C23         -1.6430    -0.3730    11.7110 c3         1 E4F       0.089800
     22 N25          0.6890     0.2770     5.9720 ns         1 E4F      -0.555900
     23 N24         -1.6430     0.3300    13.0020 nz         1 E4F      -0.812600
     24 O30          5.1700     1.0080     6.0770 o          1 E4F      -0.828800
     25 O26          5.0460    -0.7400     4.7140 o          1 E4F      -0.828800
     26 O27         -0.5860    -1.2840     6.8970 o          1 E4F      -0.633100
     27 O28          6.9120     2.7380     1.1670 os         1 E4F      -0.342900
     28 O29          7.2320     1.3930     2.9610 os         1 E4F      -0.301900
     29 H1          -0.5420     0.0080    -0.9380 ha         1 E4F       0.120000
     30 H2           1.9230    -0.0600    -0.9360 ha         1 E4F       0.127000
     31 H3          -1.7740     0.0090     1.1950 ha         1 E4F       0.117000
     32 H4           2.9920    -0.4850     0.8990 ha         1 E4F       0.147000
     33 H5           2.3640     2.9740     2.0170 ha         1 E4F       0.129000
     34 H6           4.2820     3.6220     0.6150 ha         1 E4F       0.123000
     35 H7          -0.8310     1.0110     4.1010 hc         1 E4F       0.052200
     36 H8          -1.3270    -0.6920     3.9300 hc         1 E4F       0.052200
     37 H9           8.7940     2.0720     1.7610 h2         1 E4F       0.056200
     38 H10          7.7430     0.8340     1.0200 h2         1 E4F       0.056200
     39 H11          2.7020    -0.7070     3.9310 hc         1 E4F       0.101700
     40 H12          0.6860    -1.4970     4.8260 h1         1 E4F       0.093700
     41 H13          3.0010     0.5880     4.5030 hc         1 E4F       0.118700
     42 H14          1.9600     1.9510     5.0610 hc         1 E4F       0.118700
     43 H15         -0.4130     1.4670     8.2180 hc         1 E4F       0.069700
     44 H16          1.0340     0.5730     8.7050 hc         1 E4F       0.069700
     45 H17         -1.8300    -0.4040     8.9950 hc         1 E4F       0.071700
     46 H18         -0.3830    -1.2980     9.4820 hc         1 E4F       0.071700
     47 H19         -1.2430     1.4060    10.5730 hc         1 E4F       0.064200
     48 H20          0.2040     0.5120    11.0590 hc         1 E4F       0.064200
     49 H21         -2.6600    -0.4650    11.3500 hx         1 E4F       0.113200
     50 H22         -1.2130    -1.3590    11.8370 hx         1 E4F       0.113200
     51 H23          1.1700     1.1500     6.0660 hn         1 E4F       0.339500
     52 H24         -2.0400     1.2410    12.8860 hn         1 E4F       0.453800
     53 H25         -0.7030     0.4150    13.3360 hn         1 E4F       0.453800
     54 C14          0.0180    -0.2390     7.0200 c          1 E4F       0.662100
     55 H243        -2.1860    -0.1890    13.6640 hn         1 E4F       0.453800
     56 C13          5.0180     0.4670     4.8520 c          1 E4F       0.879200
@<TRIPOS>BOND
     1    23    21 1
     2    21    20 1
     3    20    19 1
     4    19    18 1
     5    13     8 1
     6    13    16 1
     7    18    54 1
     8    25    56 1
     9    24    56 1
    10    22    54 1
    11    22    16 1
    12     3     8 ar
    13     3     1 ar
    14    56     7 1
    15     8     9 ar
    16    54    26 2
    17    16    15 1
    18     1     2 ar
    19    17    15 1
    20    17    10 1
    21     9    15 1
    22     9     4 ar
    23     7    10 ar
    24     7    12 ar
    25     2     4 ar
    26    10     5 ar
    27    28    12 1
    28    28    14 1
    29    12    11 ar
    30     5     6 ar
    31    14    27 1
    32    11     6 ar
    33    11    27 1
    34     1    29 1
    35     2    30 1
    36     3    31 1
    37     4    32 1
    38     5    33 1
    39     6    34 1
    40    13    35 1
    41    13    36 1
    42    14    37 1
    43    14    38 1
    44    15    39 1
    45    16    40 1
    46    17    41 1
    47    17    42 1
    48    18    43 1
    49    18    44 1
    50    19    45 1
    51    19    46 1
    52    20    47 1
    53    20    48 1
    54    21    49 1
    55    21    50 1
    56    22    51 1
    57    23    52 1
    58    23    53 1
    59    55    23 1
@<TRIPOS>SUBSTRUCTURE
     1 E4F         1 TEMP              0 ****  ****    0 ROOT
