@<TRIPOS>MOLECULE
E4F
   56    59     1     0     0
SMALL
bcc


@<TRIPOS>ATOM
      1 C1           0.0000     0.0000     0.0000 ca         1 E4F      -0.118000
      2 C2           1.3820     0.0000     0.0000 ca         1 E4F      -0.129000
      3 C3          -0.6910     0.0050     1.1960 ca         1 E4F      -0.090000
      4 C4           2.0710     0.0000     1.1980 ca         1 E4F      -0.063000
      5 C5           3.3560     2.6160     2.2630 ca         1 E4F      -0.106000
      6 C6           4.4360     2.9810     1.4750 ca         1 E4F      -0.119000
      7 C7           4.8190     1.3390     3.6800 ca         1 E4F      -0.080600
      8 C8          -0.0020     0.0090     2.3970 ca         1 E4F      -0.110300
      9 C9           1.3820    -0.0020     2.3980 ca         1 E4F      -0.058300
     10 C10          3.5390     1.8020     3.3600 ca         1 E4F      -0.027300
     11 C11          5.7090     2.5270     1.7760 ca         1 E4F       0.032100
     12 C12          5.9070     1.6980     2.8780 ca         1 E4F       0.086100
     13 C15         -0.5130     0.0140     3.8220 c3         1 E4F       0.029900
     14 C16          7.7800     1.7030     1.6650 c3         1 E4F       0.422200
     15 C17          1.8930     0.0060     3.8220 c3         1 E4F       0.050600
     16 C18          0.6900    -0.4230     4.6850 c3         1 E4F       0.012700
     17 C19          2.3590     1.4100     4.2120 c3         1 E4F      -0.213100
     18 C20          0.0170     0.4810     8.3440 c3         1 E4F      -0.100400
     19 C21         -0.8130    -0.3120     9.3560 c3         1 E4F      -0.002400
     20 C22         -0.8130     0.4200    10.6990 c3         1 E4F      -0.041400
     21 C23         -1.6430    -0.3730    11.7110 c3         1 E4F      -0.053200
     22 N25          0.6890     0.2770     5.9720 ns         1 E4F      -0.162900
     23 N24         -1.6430     0.3300    13.0020 nz         1 E4F       0.082400
     24 O30          5.1700     1.0080     6.0770 o          1 E4F      -0.879300
     25 O26          5.0460    -0.7400     4.7140 o          1 E4F      -0.879300
     26 O27         -0.5860    -1.2840     6.8970 o          1 E4F      -0.677100
     27 O28          6.9120     2.7380     1.1670 os         1 E4F      -0.328900
     28 O29          7.2320     1.3930     2.9610 os         1 E4F      -0.288900
     29 H1          -0.5420     0.0080    -0.9380 ha         1 E4F       0.095000
     30 H2           1.9230    -0.0600    -0.9360 ha         1 E4F       0.101000
     31 H3          -1.7740     0.0090     1.1950 ha         1 E4F       0.093000
     32 H4           2.9920    -0.4850     0.8990 ha         1 E4F       0.120000
     33 H5           2.3640     2.9740     2.0170 ha         1 E4F       0.104000
     34 H6           4.2820     3.6220     0.6150 ha         1 E4F       0.097000
     35 H7          -0.8310     1.0110     4.1010 hc         1 E4F       0.019700
     36 H8          -1.3270    -0.6920     3.9300 hc         1 E4F       0.019700
     37 H9           8.7940     2.0720     1.7610 h2         1 E4F       0.001700
     38 H10          7.7430     0.8340     1.0200 h2         1 E4F       0.001700
     39 H11          2.7020    -0.7070     3.9310 hc         1 E4F       0.078700
     40 H12          0.6860    -1.4970     4.8260 h1         1 E4F       0.067700
     41 H13          3.0010     0.5880     4.5030 hc         1 E4F       0.105700
     42 H14          1.9600     1.9510     5.0610 hc         1 E4F       0.105700
     43 H15         -0.4130     1.4670     8.2180 hc         1 E4F       0.035200
     44 H16          1.0340     0.5730     8.7050 hc         1 E4F       0.035200
     45 H17         -1.8300    -0.4040     8.9950 hc         1 E4F       0.040700
     46 H18         -0.3830    -1.2980     9.4820 hc         1 E4F       0.040700
     47 H19         -1.2430     1.4060    10.5730 hc         1 E4F       0.032200
     48 H20          0.2040     0.5120    11.0590 hc         1 E4F       0.032200
     49 H21         -2.6600    -0.4650    11.3500 hx         1 E4F       0.086700
     50 H22         -1.2130    -1.3590    11.8370 hx         1 E4F       0.086700
     51 H23          1.1700     1.1500     6.0660 hn         1 E4F       0.206500
     52 H24         -2.0400     1.2410    12.8860 hn         1 E4F       0.220800
     53 H25         -0.7030     0.4150    13.3360 hn         1 E4F       0.220800
     54 C14          0.0180    -0.2390     7.0200 c          1 E4F       0.571100
     55 H243        -2.1860    -0.1890    13.6640 hn         1 E4F       0.220800
     56 C13          5.0180     0.4670     4.8520 c          1 E4F       0.973200
@<TRIPOS>BOND
     1     1     2 ar  
     2     1     3 ar  
     3     1    29 1   
     4     2     4 ar  
     5     2    30 1   
     6     3     8 ar  
     7     3    31 1   
     8     4     9 ar  
     9     4    32 1   
    10     5     6 ar  
    11     5    10 ar  
    12     5    33 1   
    13     6    11 ar  
    14     6    34 1   
    15     7    10 ar  
    16     7    12 ar  
    17     7    56 1   
    18     8     9 ar  
    19     8    13 1   
    20     9    15 1   
    21    10    17 1   
    22    11    12 ar  
    23    11    27 1   
    24    12    28 1   
    25    13    16 1   
    26    13    35 1   
    27    13    36 1   
    28    14    27 1   
    29    14    28 1   
    30    14    37 1   
    31    14    38 1   
    32    15    16 1   
    33    15    17 1   
    34    15    39 1   
    35    16    22 1   
    36    16    40 1   
    37    17    41 1   
    38    17    42 1   
    39    18    19 1   
    40    18    43 1   
    41    18    44 1   
    42    18    54 1   
    43    19    20 1   
    44    19    45 1   
    45    19    46 1   
    46    20    21 1   
    47    20    47 1   
    48    20    48 1   
    49    21    23 1   
    50    21    49 1   
    51    21    50 1   
    52    22    51 1   
    53    22    54 1   
    54    23    52 1   
    55    23    53 1   
    56    23    55 1   
    57    24    56 1   
    58    25    56 1   
    59    26    54 2   
@<TRIPOS>SUBSTRUCTURE
     1 E4F         1 TEMP              0 ****  ****    0 ROOT
