@<TRIPOS>MOLECULE
E4H
   49    49     1     0     0
SMALL
bcc


@<TRIPOS>ATOM
      1 CAD         0.1850    0.2100    0.3850 c3        1 E4H     -0.095100
      2 CAR         1.6720    0.0490    0.2030 c3        1 E4H     -0.087700
      3 CAL         2.3470   -0.6920    1.3560 c3        1 E4H     -0.061400
      4 CAQ         1.6720   -1.8610    2.0600 c3        1 E4H     -0.152700
      5 CAC         0.4930   -1.4550    2.9180 c3        1 E4H     -0.089100
      6 CAN         1.3410   -3.0430    1.1760 c         1 E4H      0.579300
      7 OAF         1.9320   -3.2600    0.1130 o         1 E4H     -0.527100
      8 CAI         0.3860   -4.0010    1.7610 ce        1 E4H     -0.247200
      9 CAJ        -0.7820   -4.4480    1.2990 c2        1 E4H     -0.101200
     10 CAP        -1.5750   -4.1120    0.0850 c3        1 E4H     -0.041500
     11 CAB        -2.4350   -2.8900    0.3430 c3        1 E4H     -0.079100
     12 CAU        -0.7780   -4.0090   -1.2280 c3        1 E4H      0.150100
     13 CAK        -1.6400   -4.5130   -2.3870 c3        1 E4H     -0.095400
     14 CAA        -0.8990   -4.5690   -3.6960 c3        1 E4H     -0.093100
     15 OAM        -0.4520   -2.6210   -1.4350 os        1 E4H     -0.445900
     16 CAO         0.7090   -2.3290   -2.1050 c         1 E4H      0.638100
     17 OAG         1.3750   -3.2450   -2.5860 o         1 E4H     -0.522000
     18 CAS         0.9900   -0.8440   -2.1750 c3        1 E4H     -0.097700
     19 CAE         1.3840   -0.5030   -3.6000 c3        1 E4H     -0.081100
     20 CAT         2.1090   -0.5200   -1.1670 c3        1 E4H      0.141100
     21 OAH         2.9530    0.4480   -1.7930 oh        1 E4H     -0.602800
     22 HAD1       -0.3460   -0.7570    0.2080 hc        1 E4H      0.042700
     23 HAD2       -0.2140    0.9760   -0.3260 hc        1 E4H      0.042700
     24 HAD3       -0.0370    0.5660    1.4210 hc        1 E4H      0.042700
     25 HAR         2.1030    1.0990    0.2370 hc        1 E4H      0.054700
     26 HAL1        3.3440   -1.0630    0.9870 hc        1 E4H      0.043200
     27 HAL2        2.5570    0.0710    2.1570 hc        1 E4H      0.043200
     28 HAQ         2.4640   -2.2690    2.7660 hc        1 E4H      0.065700
     29 HAC1       -0.4500   -1.4090    2.3220 hc        1 E4H      0.041700
     30 HAC2        0.6740   -0.4550    3.3820 hc        1 E4H      0.041700
     31 HAC3        0.3420   -2.2000    3.7370 hc        1 E4H      0.041700
     32 HAI         0.7510   -4.3870    2.7330 ha        1 E4H      0.136000
     33 HAJ        -1.3170   -5.1800    1.9400 ha        1 E4H      0.116000
     34 HAP        -2.2810   -4.9870   -0.0670 hc        1 E4H      0.057700
     35 HAB1       -3.1500   -3.0920    1.1760 hc        1 E4H      0.041700
     36 HAB2       -3.0110   -2.6330   -0.5790 hc        1 E4H      0.041700
     37 HAB3       -1.8050   -2.0120    0.6170 hc        1 E4H      0.041700
     38 HAU         0.1760   -4.6040   -1.1550 h1        1 E4H      0.093700
     39 HAK1       -2.5380   -3.8480   -2.4870 hc        1 E4H      0.044200
     40 HAK2       -2.0040   -5.5430   -2.1290 hc        1 E4H      0.044200
     41 HAA1       -0.6400   -3.5400   -4.0440 hc        1 E4H      0.041033
     42 HAA2        0.0540   -5.1420   -3.5870 hc        1 E4H      0.041033
     43 HAA3       -1.5310   -5.0600   -4.4750 hc        1 E4H      0.041033
     44 HAS         0.0500   -0.2820   -1.9280 hc        1 E4H      0.083700
     45 HAE1        2.3200   -1.0420   -3.8820 hc        1 E4H      0.050700
     46 HAE2        0.5690   -0.8000   -4.3030 hc        1 E4H      0.050700
     47 HAE3        1.5640    0.5960   -3.6890 hc        1 E4H      0.050700
     48 HAT         2.7060   -1.4670   -1.0050 h1        1 E4H      0.075700
     49 HOAH        3.7780    0.4520   -1.2940 ho        1 E4H      0.401000
@<TRIPOS>BOND
     1    1    2 1   
     2    1   22 1   
     3    1   23 1   
     4    1   24 1   
     5    2    3 1   
     6    2   20 1   
     7    2   25 1   
     8    3    4 1   
     9    3   26 1   
    10    3   27 1   
    11    4    5 1   
    12    4    6 1   
    13    4   28 1   
    14    5   29 1   
    15    5   30 1   
    16    5   31 1   
    17    6    7 2   
    18    6    8 1   
    19    8    9 2   
    20    8   32 1   
    21    9   10 1   
    22    9   33 1   
    23   10   11 1   
    24   10   12 1   
    25   10   34 1   
    26   11   35 1   
    27   11   36 1   
    28   11   37 1   
    29   12   13 1   
    30   12   15 1   
    31   12   38 1   
    32   13   14 1   
    33   13   39 1   
    34   13   40 1   
    35   14   41 1   
    36   14   42 1   
    37   14   43 1   
    38   15   16 1   
    39   16   17 2   
    40   16   18 1   
    41   18   19 1   
    42   18   20 1   
    43   18   44 1   
    44   19   45 1   
    45   19   46 1   
    46   19   47 1   
    47   20   21 1   
    48   20   48 1   
    49   21   49 1   
@<TRIPOS>SUBSTRUCTURE
     1 E4H         1 TEMP              0 ****  ****    0 ROOT
