@<TRIPOS>MOLECULE
molecule
   49    49     1     0     0
SMALL
bcc


@<TRIPOS>ATOM
      1 CAD          0.0000     0.0000     0.0000 c3         1 E4H      -0.098100
      2 CAR          1.5240     0.0000     0.0000 c3         1 E4H      -0.104700
      3 CAL          2.0950     0.0000     1.4070 c3         1 E4H      -0.056400
      4 CAQ          1.7010    -1.1580     2.2990 c3         1 E4H      -0.157700
      5 CAC          0.4210    -0.8660     3.0790 c3         1 E4H      -0.090100
      6 CAN          1.6260    -2.4770     1.5970 c          1 E4H       0.570300
      7 OAF          2.6280    -3.1710     1.5220 o          1 E4H      -0.534100
      8 CAI          0.3900    -2.9740     0.9890 ce         1 E4H      -0.268200
      9 CAJ          0.4120    -4.1380     0.3340 c2         1 E4H      -0.082200
     10 CAP         -0.8090    -4.6910    -0.3450 c3         1 E4H      -0.060500
     11 CAB         -2.0600    -4.4610     0.5000 c3         1 E4H      -0.091100
     12 CAU         -0.9760    -4.0290    -1.7160 c3         1 E4H       0.161100
     13 CAK         -2.4650    -3.8930    -2.0400 c3         1 E4H      -0.089400
     14 CAA         -2.6300    -3.3640    -3.4650 c3         1 E4H      -0.096100
     15 OAM         -0.3590    -2.7170    -1.7050 os         1 E4H      -0.441900
     16 CAO          0.7420    -2.4610    -2.4230 c          1 E4H       0.641100
     17 OAG          1.1750    -3.2800    -3.1960 o          1 E4H      -0.541000
     18 CAS          1.4740    -1.1490    -2.2490 c3         1 E4H      -0.140700
     19 CAE          2.5920    -1.0670    -3.2970 c3         1 E4H      -0.070100
     20 CAT          2.1000    -1.1200    -0.8520 c3         1 E4H       0.145100
     21 OAH          3.5130    -0.9230    -0.9930 oh         1 E4H      -0.589800
     22 HAD1        -0.3610     0.3070    -0.9740 hc         1 E4H       0.044700
     23 HAD2        -0.3610     0.6900     0.7530 hc         1 E4H       0.044700
     24 HAD3        -0.3610    -0.9970     0.2210 hc         1 E4H       0.044700
     25 HAR          1.8340     0.9300    -0.4600 hc         1 E4H       0.041700
     26 HAL1         3.1760     0.0090     1.3290 hc         1 E4H       0.052200
     27 HAL2         1.7850     0.9170     1.8930 hc         1 E4H       0.052200
     28 HAQ          2.4900    -1.2540     3.0350 hc         1 E4H       0.072700
     29 HAC1         0.1590    -1.7280     3.6800 hc         1 E4H       0.040033
     30 HAC2        -0.3830    -0.6500     2.3860 hc         1 E4H       0.040033
     31 HAC3         0.5800    -0.0110     3.7250 hc         1 E4H       0.040033
     32 HAI         -0.5240    -2.3940     1.0450 ha         1 E4H       0.146000
     33 HAJ          1.3420    -4.6890     0.2670 ha         1 E4H       0.154000
     34 HAP         -0.6760    -5.7560    -0.4860 hc         1 E4H       0.067700
     35 HAB1        -2.9240    -4.8580    -0.0180 hc         1 E4H       0.041700
     36 HAB2        -2.1940    -3.3980     0.6650 hc         1 E4H       0.041700
     37 HAB3        -1.9480    -4.9620     1.4540 hc         1 E4H       0.041700
     38 HAU         -0.4990    -4.6430    -2.4710 h1         1 E4H       0.077700
     39 HAK1        -2.9250    -3.2030    -1.3420 hc         1 E4H       0.055200
     40 HAK2        -2.9430    -4.8620    -1.9570 hc         1 E4H       0.055200
     41 HAA1        -3.6320    -3.5800    -3.8170 hc         1 E4H       0.039033
     42 HAA2        -2.4680    -2.2930    -3.4740 hc         1 E4H       0.039033
     43 HAA3        -1.9080    -3.8440    -4.1150 hc         1 E4H       0.039033
     44 HAS          0.7880    -0.3200    -2.3690 hc         1 E4H       0.074700
     45 HAE1         3.3670    -1.7840    -3.0560 hc         1 E4H       0.050367
     46 HAE2         2.1860    -1.2900    -4.2760 hc         1 E4H       0.050367
     47 HAE3         3.0110    -0.0680    -3.3000 hc         1 E4H       0.050367
     48 HAT          1.9200    -2.0680    -0.3610 h1         1 E4H       0.096700
     49 HOAH         3.7030     0.0010    -1.0070 ho         1 E4H       0.398000
@<TRIPOS>BOND
     1     1     2 1
     2     1    22 1
     3     1    23 1
     4     1    24 1
     5     2     3 1
     6     2    20 1
     7     2    25 1
     8     3     4 1
     9     3    26 1
    10     3    27 1
    11     4     5 1
    12     4     6 1
    13     4    28 1
    14     5    29 1
    15     5    30 1
    16     5    31 1
    17     6     7 2
    18     6     8 1
    19     8     9 2
    20     8    32 1
    21     9    10 1
    22     9    33 1
    23    10    11 1
    24    10    12 1
    25    10    34 1
    26    11    35 1
    27    11    36 1
    28    11    37 1
    29    12    13 1
    30    12    15 1
    31    12    38 1
    32    13    14 1
    33    13    39 1
    34    13    40 1
    35    14    41 1
    36    14    42 1
    37    14    43 1
    38    15    16 1
    39    16    17 2
    40    16    18 1
    41    18    19 1
    42    18    20 1
    43    18    44 1
    44    19    45 1
    45    19    46 1
    46    19    47 1
    47    20    21 1
    48    20    48 1
    49    21    49 1
@<TRIPOS>SUBSTRUCTURE
     1 E4H         1 TEMP              0 ****  ****    0 ROOT
