@<TRIPOS>MOLECULE
molecule
   61    65     1     0     0
SMALL
bcc


@<TRIPOS>ATOM
      1 C1           0.0000     0.0000     0.0000 ca         1 E4K      -0.070300
      2 C2           1.3800     0.0000     0.0000 ca         1 E4K      -0.133000
      3 C3           2.0750     0.0000     1.1970 ca         1 E4K      -0.136000
      4 C7          -2.1770     0.0010     1.2150 cp         1 E4K      -0.063000
      5 C8          -2.8740     1.0910     1.7240 ca         1 E4K      -0.125000
      6 C9          -4.2610     1.0980     1.7280 ca         1 E4K      -0.178000
      7 C10         -4.9670     0.0400     1.2330 ca         1 E4K      -0.086000
      8 C11         -4.2930    -1.0730     0.7120 ca         1 E4K      -0.092800
      9 C12         -2.8860    -1.0950     0.7020 ca         1 E4K      -0.051200
     10 C13         -3.6230    -3.0100    -0.1950 cc         1 E4K      -0.044300
     11 C14         -4.7290    -2.2930     0.1420 cd         1 E4K      -0.168400
     12 C15         -6.1600    -2.7200    -0.0580 c3         1 E4K       0.007800
     13 C16         -6.6440    -3.4770     1.1810 c3         1 E4K      -0.071400
     14 C19        -10.6260    -4.8440     1.0100 ca         1 E4K      -0.225000
     15 C20        -11.9270    -5.3100     0.9950 ca         1 E4K      -0.095000
     16 C21        -12.4250    -5.9930     2.0850 ca         1 E4K      -0.182000
     17 C22        -11.6290    -6.2210     3.2020 ca         1 E4K      -0.046300
     18 C24         -9.4140    -5.9730     4.3960 c3         1 E4K      -0.021100
     19 C27        -12.2420    -6.9670     4.3580 c3         1 E4K      -0.029100
     20 O1          -2.4610    -4.9530    -1.1050 o          1 E4K      -0.823800
     21 C28         -3.6270    -4.3400    -0.8180 c          1 E4K       0.895800
     22 O2          -4.6820    -4.8880    -1.0750 o          1 E4K      -0.823800
     23 N           -2.4950    -2.2860     0.1430 na         1 E4K      -0.144400
     24 C6          -0.6940     0.0020     1.2090 cp         1 E4K      -0.023000
     25 C5           0.0110     0.0030     2.4110 ca         1 E4K      -0.114000
     26 C4           1.3910     0.0020     2.3990 ca         1 E4K      -0.143000
     27 C           -0.7540     0.0050    -1.3050 c3         1 E4K      -0.055800
     28 C17         -8.0970    -3.9100     0.9780 c3         1 E4K       0.132400
     29 O           -8.5480    -4.6170     2.1350 os         1 E4K      -0.326900
     30 C18         -9.8280    -5.0740     2.1180 ca         1 E4K       0.159100
     31 C23        -10.3330    -5.7620     3.2200 ca         1 E4K      -0.108300
     32 C25        -10.2110    -6.3470     5.6430 c3         1 E4K      -0.083400
     33 C26        -11.1550    -7.5020     5.2890 c3         1 E4K      -0.081400
     34 H1           1.9210    -0.0010    -0.9390 ha         1 E4K       0.124000
     35 H2           3.1580    -0.0000     1.1920 ha         1 E4K       0.117000
     36 H3          -2.3300     1.9400     2.1200 ha         1 E4K       0.117000
     37 H4          -4.7900     1.9550     2.1280 ha         1 E4K       0.110000
     38 H5          -6.0500     0.0600     1.2430 ha         1 E4K       0.118000
     39 H6          -6.2260    -3.3670    -0.9250 hc         1 E4K       0.052200
     40 H7          -6.7800    -1.8450    -0.2120 hc         1 E4K       0.052200
     41 H8          -6.5770    -2.8310     2.0470 hc         1 E4K       0.059700
     42 H9          -6.0250    -4.3520     1.3340 hc         1 E4K       0.059700
     43 H10        -10.2300    -4.3070     0.1570 ha         1 E4K       0.142000
     44 H11        -12.5560    -5.1330     0.1310 ha         1 E4K       0.121000
     45 H12        -13.4450    -6.3560     2.0700 ha         1 E4K       0.118000
     46 H13         -8.8840    -5.0480     4.5900 hc         1 E4K       0.061200
     47 H14         -8.7370    -6.7860     4.1630 hc         1 E4K       0.061200
     48 H15        -12.8860    -6.2960     4.9130 hc         1 E4K       0.044200
     49 H16        -12.8240    -7.7970     3.9780 hc         1 E4K       0.044200
     50 H18         -1.5490    -2.5820     0.0040 hn         1 E4K       0.316700
     51 H19         -0.5230     0.0040     3.3540 ha         1 E4K       0.134000
     52 H20          1.9400     0.0020     3.3330 ha         1 E4K       0.118000
     53 H21         -1.7540     0.3900    -1.1420 hc         1 E4K       0.050700
     54 H22         -0.8140    -1.0050    -1.6910 hc         1 E4K       0.050700
     55 H23         -0.2370     0.6340    -2.0190 hc         1 E4K       0.050700
     56 H24         -8.1640    -4.5550     0.1110 h1         1 E4K       0.034200
     57 H25         -8.7160    -3.0340     0.8260 h1         1 E4K       0.034200
     58 H26        -10.7900    -5.4930     5.9730 hc         1 E4K       0.039200
     59 H27         -9.5330    -6.6600     6.4270 hc         1 E4K       0.039200
     60 H28        -10.6000    -8.2850     4.7880 hc         1 E4K       0.040200
     61 H29        -11.6090    -7.8900     6.1930 hc         1 E4K       0.040200
@<TRIPOS>BOND
     1    22    21 1
     2    20    21 1
     3    27     1 1
     4    21    10 1
     5    13    28 1
     6    13    12 1
     7     2     1 ar
     8     2     3 ar
     9    10    23 1
    10    10    11 2
    11     1    24 ar
    12    28    29 1
    13    23     9 1
    14    29    30 1
    15    11    12 1
    16    11     8 1
    17     3    26 ar
    18     9     8 ar
    19     9     4 ar
    20    30    14 ar
    21    30    31 ar
    22    24     4 1
    23    24    25 ar
    24     8     7 ar
    25    14    15 ar
    26    18    31 1
    27    18    32 1
    28     4     5 ar
    29    31    17 ar
    30    26    25 ar
    31    15    16 ar
    32     7     6 ar
    33     5     6 ar
    34    32    33 1
    35    17    16 ar
    36    17    19 1
    37    33    19 1
    38     2    34 1
    39     3    35 1
    40     5    36 1
    41     6    37 1
    42     7    38 1
    43    12    39 1
    44    12    40 1
    45    13    41 1
    46    13    42 1
    47    14    43 1
    48    15    44 1
    49    16    45 1
    50    18    46 1
    51    18    47 1
    52    19    48 1
    53    19    49 1
    54    23    50 1
    55    25    51 1
    56    26    52 1
    57    27    53 1
    58    27    54 1
    59    27    55 1
    60    28    56 1
    61    28    57 1
    62    32    58 1
    63    32    59 1
    64    33    60 1
    65    33    61 1
@<TRIPOS>SUBSTRUCTURE
     1 E4K         1 TEMP              0 ****  ****    0 ROOT
