@<TRIPOS>MOLECULE
molecule
   77    82     1     0     0
SMALL
bcc


@<TRIPOS>ATOM
      1 C1           0.0000     0.0000     0.0000 cc         1 E4Q      -0.068600
      2 C2           1.3530     0.0000     0.0000 cd         1 E4Q      -0.318300
      3 C3           1.7840     0.0000     1.3300 cd         1 E4Q       0.356600
      4 C7           6.1310    -2.8710     2.7310 cd         1 E4Q       0.367600
      5 C8           6.8250    -3.6130     1.7560 cd         1 E4Q      -0.234300
      6 C9           7.2290    -4.7810     2.3360 cc         1 E4Q      -0.061600
      7 C11          8.0090    -5.8830     1.6690 c3         1 E4Q      -0.026800
      8 C12          7.0720    -3.2010     0.3520 ca         1 E4Q      -0.026000
      9 C13          8.2180    -2.4900     0.0240 ca         1 E4Q      -0.132000
     10 C14          8.4560    -2.1010    -1.2860 ca         1 E4Q      -0.182000
     11 C15          7.5690    -2.4100    -2.2770 ca         1 E4Q      -0.090000
     12 C16          6.4020    -3.1270    -1.9770 ca         1 E4Q      -0.095800
     13 C19          5.3150    -3.5860    -2.7610 cd         1 E4Q      -0.175400
     14 C20          5.1470    -3.3920    -4.2460 c3         1 E4Q       0.009800
     15 C21          5.7880    -4.5660    -4.9890 c3         1 E4Q      -0.071400
     16 C22          5.6160    -4.3700    -6.4980 c3         1 E4Q       0.131400
     17 C24          5.5340    -4.4110    -9.1920 ca         1 E4Q      -0.248000
     18 C27          6.6380    -6.4540   -10.7150 ca         1 E4Q       0.000000
     19 C30          7.8970    -8.5690    -9.4370 ca         1 E4Q      -0.158000
     20 C31          7.8200    -8.5310   -10.8280 ca         1 E4Q      -0.117000
     21 C32          7.2090    -7.4950   -11.4660 ca         1 E4Q      -0.138000
     22 O1           2.8460    -4.8330    -3.5080 o          1 E4Q      -0.825300
     23 O2           2.4170    -5.4790    -1.4260 o          1 E4Q      -0.825300
     24 C18          4.4530    -4.2320    -1.9330 cc         1 E4Q      -0.040300
     25 O            6.2140    -5.4660    -7.1910 os         1 E4Q      -0.323900
     26 C23          6.1500    -5.4460    -8.5470 ca         1 E4Q       0.179100
     27 C28          6.7180    -6.4950    -9.3010 ca         1 E4Q      -0.061000
     28 C29          7.3600    -7.5760    -8.6770 ca         1 E4Q      -0.077000
     29 C26          6.0010    -5.3680   -11.3390 ca         1 E4Q      -0.181000
     30 C25          5.4580    -4.3760   -10.5820 ca         1 E4Q      -0.076000
     31 N4           4.9540    -4.2010    -0.6460 na         1 E4Q      -0.132400
     32 C17          6.1520    -3.5320    -0.6540 ca         1 E4Q      -0.045200
     33 N2           6.8060    -4.7660     3.6170 na         1 E4Q       0.062400
     34 N3           6.1280    -3.5630     3.8410 nc         1 E4Q      -0.515800
     35 C6           5.5050    -1.5150     2.5320 c3         1 E4Q      -0.011600
     36 S            3.7900    -1.7150     1.9760 ss         1 E4Q      -0.272200
     37 C5           3.2170    -0.0040     1.7940 c3         1 E4Q      -0.009600
     38 N            0.7280    -0.0010     2.1020 nc         1 E4Q      -0.511800
     39 N1          -0.4110     0.0040     1.2850 na         1 E4Q       0.061400
     40 C4          -1.8020     0.0070     1.7460 c3         1 E4Q       0.068600
     41 C           -0.8890     0.0010    -1.2170 c3         1 E4Q      -0.025800
     42 H1           1.9900    -0.0030    -0.8760 ha         1 E4Q       0.166000
     43 H2           8.0890    -5.9330     4.7890 h1         1 E4Q       0.048367
     44 H3           6.5250    -5.5660     5.5300 h1         1 E4Q       0.048367
     45 H4           6.6290    -6.7600     4.2290 h1         1 E4Q       0.048367
     46 H5           8.7860    -6.2330     2.3380 hc         1 E4Q       0.052033
     47 H6           8.4590    -5.5070     0.7580 hc         1 E4Q       0.052033
     48 H7           7.3420    -6.7030     1.4300 hc         1 E4Q       0.052033
     49 H8           8.9320    -2.2360     0.7980 ha         1 E4Q       0.114000
     50 H9           9.3550    -1.5470    -1.5260 ha         1 E4Q       0.107000
     51 H10          7.7670    -2.1000    -3.2960 ha         1 E4Q       0.116000
     52 H11          4.0920    -3.3460    -4.4870 hc         1 E4Q       0.051700
     53 H12          5.6270    -2.4690    -4.5470 hc         1 E4Q       0.051700
     54 H13          5.3080    -5.4890    -4.6880 hc         1 E4Q       0.059700
     55 H14          6.8430    -4.6120    -4.7490 hc         1 E4Q       0.059700
     56 H15          4.5610    -4.3230    -6.7380 h1         1 E4Q       0.036200
     57 H16          6.0960    -3.4470    -6.7990 h1         1 E4Q       0.036200
     58 H17          5.0930    -3.6080    -8.6130 ha         1 E4Q       0.142000
     59 H18          8.3880    -9.4040    -8.9530 ha         1 E4Q       0.123000
     60 H19          8.2560    -9.3340   -11.4090 ha         1 E4Q       0.118000
     61 H20          7.1560    -7.4790   -12.5480 ha         1 E4Q       0.124000
     62 H22          7.4280    -7.6190    -7.5970 ha         1 E4Q       0.152000
     63 H23          5.9330    -5.3260   -12.4200 ha         1 E4Q       0.123000
     64 H24          4.9640    -3.5430   -11.0680 ha         1 E4Q       0.121000
     65 H25          4.5160    -4.6040     0.1590 hn         1 E4Q       0.320700
     66 H26          6.0650    -0.9650     1.7850 h1         1 E4Q       0.067200
     67 H27          5.5200    -0.9700     3.4680 h1         1 E4Q       0.067200
     68 H28          3.2890     0.5040     2.7480 h1         1 E4Q       0.062200
     69 H29          3.8340     0.5080     1.0660 h1         1 E4Q       0.062200
     70 H30         -1.8230     0.0140     2.8290 h1         1 E4Q       0.048033
     71 H31         -2.3050    -0.8810     1.3810 h1         1 E4Q       0.048033
     72 H32         -2.3060     0.8880     1.3690 h1         1 E4Q       0.048033
     73 H33         -1.5190    -0.8800    -1.2040 hc         1 E4Q       0.049367
     74 H34         -0.2780    -0.0060    -2.1110 hc         1 E4Q       0.049367
     75 H35         -1.5100     0.8890    -1.2100 hc         1 E4Q       0.049367
     76 C10          7.0270    -5.8250     4.6060 c3         1 E4Q       0.069600
     77 C33          3.1920    -4.8640    -2.3420 c          1 E4Q       0.895800
@<TRIPOS>BOND
     1    76    33 1
     2    33    34 1
     3    33     6 1
     4    34     4 2
     5     7     6 1
     6    22    77 1
     7     6     5 2
     8     4     5 1
     9     4    35 1
    10    36    35 1
    11    36    37 1
    12     5     8 1
    13    77    23 1
    14    77    24 1
    15    31    24 1
    16    31    32 1
    17    37     3 1
    18    24    13 2
    19     8    32 ar
    20     8     9 ar
    21    32    12 ar
    22     3    38 2
    23     3     2 1
    24    38    39 1
    25    13    12 1
    26    13    14 1
    27     9    10 ar
    28    12    11 ar
    29     2     1 2
    30    14    15 1
    31    39     1 1
    32    39    40 1
    33    10    11 ar
    34    15    16 1
    35     1    41 1
    36    16    25 1
    37    25    26 1
    38    26    17 ar
    39    26    27 ar
    40    17    30 ar
    41    28    27 ar
    42    28    19 ar
    43    27    18 ar
    44    30    29 ar
    45    19    20 ar
    46    18    29 ar
    47    18    21 ar
    48    20    21 ar
    49     2    42 1
    50    76    43 1
    51    76    44 1
    52    76    45 1
    53     7    46 1
    54     7    47 1
    55     7    48 1
    56     9    49 1
    57    10    50 1
    58    11    51 1
    59    14    52 1
    60    14    53 1
    61    15    54 1
    62    15    55 1
    63    16    56 1
    64    16    57 1
    65    17    58 1
    66    19    59 1
    67    20    60 1
    68    21    61 1
    69    28    62 1
    70    29    63 1
    71    30    64 1
    72    31    65 1
    73    35    66 1
    74    35    67 1
    75    37    68 1
    76    37    69 1
    77    40    70 1
    78    40    71 1
    79    40    72 1
    80    41    73 1
    81    41    74 1
    82    41    75 1
@<TRIPOS>SUBSTRUCTURE
     1 E4Q         1 TEMP              0 ****  ****    0 ROOT
