@<TRIPOS>MOLECULE
molecule
   68    73     1     0     0
SMALL
bcc


@<TRIPOS>ATOM
      1 C01          0.0000     0.0000     0.0000 c3         1 E4S       0.140700
      2 C02          2.0450     0.0000     1.2090 ca         1 E4S       0.742600
      3 C03          3.4330    -0.0000     1.2700 ca         1 E4S      -0.454800
      4 C04          4.0540    -0.0000     2.5040 ca         1 E4S       0.035000
      5 C05          3.2530    -0.0000     3.6530 cp         1 E4S      -0.210300
      6 C06          1.8680     0.0010     3.5090 ca         1 E4S       0.515200
      7 C07          3.8690    -0.0000     5.0010 cp         1 E4S      -0.026000
      8 C08          3.0620     0.0000     6.1350 ca         1 E4S      -0.118000
      9 C09          3.6440    -0.0000     7.3900 ca         1 E4S      -0.082200
     10 C10          5.0450    -0.0020     7.5140 ca         1 E4S       0.103400
     11 C11          5.8420    -0.0020     6.3660 ca         1 E4S      -0.067000
     12 C12          5.2610    -0.0070     5.1310 ca         1 E4S      -0.138000
     13 C13          4.2130    -0.0020     9.5320 cc         1 E4S       0.656700
     14 C14          1.7870     0.0010     9.0500 ca         1 E4S      -0.032200
     15 C15          0.9850    -1.0910     8.7450 ca         1 E4S      -0.097000
     16 C16         -0.3460    -1.0920     9.1120 ca         1 E4S      -0.162000
     17 C17         -0.8820    -0.0020     9.7850 ca         1 E4S       0.112600
     18 C18         -0.0790     1.0890    10.0890 ca         1 E4S      -0.162000
     19 C19          1.2520     1.0900     9.7220 ca         1 E4S      -0.097000
     20 C20         -3.0980    -0.2110     8.9860 c3         1 E4S       0.123800
     21 C21         -4.5590    -0.2650     9.4450 c3         1 E4S       0.136900
     22 C22         -4.0530     1.1730    11.2910 c3         1 E4S       0.136900
     23 C23         -2.5870     1.2420    10.8520 c3         1 E4S       0.123800
     24 C24          4.4850    -2.6370    -0.4580 ca         1 E4S       0.138600
     25 C25          4.4810    -2.8210     0.9180 ca         1 E4S      -0.164000
     26 C26          4.8890    -4.0290     1.4520 ca         1 E4S      -0.105000
     27 C27          5.3020    -5.0520     0.6190 ca         1 E4S      -0.127000
     28 C28          5.3080    -4.8720    -0.7520 ca         1 E4S      -0.138000
     29 C29          4.9000    -3.6670    -1.2940 ca         1 E4S       0.103900
     30 F01          4.9050    -3.4920    -2.6340 f          1 E4S      -0.138900
     31 N01          1.3160     0.0060     2.3120 nb         1 E4S      -0.779000
     32 N02          5.3270    -0.0020     8.8430 nd         1 E4S      -0.609100
     33 N03          4.1320    -0.0020    10.9080 nv         1 E4S      -1.000800
     34 N04          3.1410    -0.0000     8.6820 na         1 E4S      -0.095400
     35 N05         -2.2310    -0.0030    10.1550 nh         1 E4S      -0.594000
     36 N06          4.0660    -1.4180    -1.0020 nu         1 E4S      -0.755500
     37 O01          1.4290     0.0000     0.0000 os         1 E4S      -0.436100
     38 O02         -4.8770     0.9380    10.1470 os         1 E4S      -0.420600
     39 O03          3.8750     1.0430    -1.0220 o          1 E4S      -0.618800
     40 O04          5.7520    -0.0700     0.1950 o          1 E4S      -0.618800
     41 S01          4.3910    -0.0020    -0.2080 sy         1 E4S       1.436200
     42 H03         -0.3610    -0.8790     0.5200 h1         1 E4S       0.052033
     43 H02         -0.3610     0.8900     0.5020 h1         1 E4S       0.052033
     44 H01         -0.3610    -0.0110    -1.0210 h1         1 E4S       0.052033
     45 H04          5.1350    -0.0010     2.5820 ha         1 E4S       0.175000
     46 H05          1.2370     0.0030     4.3900 h4         1 E4S       0.032100
     47 H06          1.9890     0.1100     6.0350 ha         1 E4S       0.131000
     48 H08          6.9210    -0.0080     6.4570 ha         1 E4S       0.148000
     49 H07          5.8840    -0.0150     4.2440 ha         1 E4S       0.139000
     50 H11          1.4030    -1.9420     8.2210 ha         1 E4S       0.145500
     51 H13         -0.9730    -1.9440     8.8750 ha         1 E4S       0.144500
     52 H14         -0.4970     1.9400    10.6130 ha         1 E4S       0.144500
     53 H12          1.8780     1.9420     9.9590 ha         1 E4S       0.145500
     54 H15         -2.9690     0.6090     8.2900 h1         1 E4S       0.052450
     55 H16         -2.8370    -1.1460     8.5050 h1         1 E4S       0.052450
     56 H20         -4.6990    -1.1150    10.1030 h1         1 E4S       0.057700
     57 H19         -5.2050    -0.3600     8.5800 h1         1 E4S       0.057700
     58 H22         -4.1790     0.3630    11.9990 h1         1 E4S       0.057700
     59 H21         -4.3350     2.1120    11.7530 h1         1 E4S       0.057700
     60 H17         -2.4510     2.0820    10.1820 h1         1 E4S       0.052450
     61 H18         -1.9550     1.3600    11.7240 h1         1 E4S       0.052450
     62 H24          4.1580    -2.0200     1.5720 ha         1 E4S       0.146000
     63 H25          4.8860    -4.1740     2.5250 ha         1 E4S       0.139000
     64 H26          5.6210    -5.9970     1.0420 ha         1 E4S       0.139000
     65 H27          5.6320    -5.6760    -1.4020 ha         1 E4S       0.148000
     66 H09          4.3170     0.8380    11.4200 hn         1 E4S       0.447300
     67 H10          3.9390    -0.8530    11.3980 hn         1 E4S       0.447300
     68 H23          3.6200    -1.3980    -1.8970 hn         1 E4S       0.473800
@<TRIPOS>BOND
     1    32    13 2
     2    32    10 1
     3    33    13 1
     4    13    34 1
     5    11    10 ar
     6    11    12 ar
     7    10     9 ar
     8    34     9 1
     9    34    14 1
    10    15    14 ar
    11    15    16 ar
    12    12     7 ar
    13     9     8 ar
    14    14    19 ar
    15    16    17 ar
    16     7     8 ar
    17     7     5 1
    18     6     5 ar
    19     6    31 ar
    20     5     4 ar
    21    17    35 1
    22    17    18 ar
    23    19    18 ar
    24    22    23 1
    25    22    38 1
    26    31     2 ar
    27    23    35 1
    28    35    20 1
    29     4     3 ar
    30    38    21 1
    31     2     3 ar
    32     2    37 1
    33     3    41 1
    34    20    21 1
    35    37     1 1
    36    39    41 2
    37    41    36 1
    38    41    40 2
    39    36    24 1
    40    25    24 ar
    41    25    26 ar
    42    24    29 ar
    43    26    27 ar
    44    29    30 1
    45    29    28 ar
    46    27    28 ar
    47     1    42 1
    48     1    43 1
    49     1    44 1
    50     4    45 1
    51     6    46 1
    52     8    47 1
    53    11    48 1
    54    12    49 1
    55    15    50 1
    56    16    51 1
    57    18    52 1
    58    19    53 1
    59    20    54 1
    60    20    55 1
    61    21    56 1
    62    21    57 1
    63    22    58 1
    64    22    59 1
    65    23    60 1
    66    23    61 1
    67    25    62 1
    68    26    63 1
    69    27    64 1
    70    28    65 1
    71    33    66 1
    72    33    67 1
    73    36    68 1
@<TRIPOS>SUBSTRUCTURE
     1 E4S         1 TEMP              0 ****  ****    0 ROOT
