@<TRIPOS>MOLECULE
E4S
   68    73     1     0     0
SMALL
bcc


@<TRIPOS>ATOM
      1 C01          0.0000     0.0000     0.0000 c3         1 E4S       0.262700
      2 C02          2.0450     0.0000     1.2090 ca         1 E4S       0.710600
      3 C03          3.4330    -0.0000     1.2700 ca         1 E4S      -0.308800
      4 C04          4.0540    -0.0000     2.5040 ca         1 E4S       0.067000
      5 C05          3.2530    -0.0000     3.6530 cp         1 E4S      -0.211300
      6 C06          1.8680     0.0010     3.5090 ca         1 E4S       0.492200
      7 C07          3.8690    -0.0000     5.0010 cp         1 E4S      -0.024000
      8 C08          3.0620     0.0000     6.1350 ca         1 E4S      -0.085000
      9 C09          3.6440    -0.0000     7.3900 ca         1 E4S      -0.259200
     10 C10          5.0450    -0.0020     7.5140 ca         1 E4S       0.073400
     11 C11          5.8420    -0.0020     6.3660 ca         1 E4S      -0.031000
     12 C12          5.2610    -0.0070     5.1310 ca         1 E4S      -0.120000
     13 C13          4.2130    -0.0020     9.5320 cc         1 E4S       0.309700
     14 C14          1.7870     0.0010     9.0500 ca         1 E4S      -0.204200
     15 C15          0.9850    -1.0910     8.7450 ca         1 E4S      -0.053500
     16 C16         -0.3460    -1.0920     9.1120 ca         1 E4S      -0.144000
     17 C17         -0.8820    -0.0020     9.7850 ca         1 E4S       0.041600
     18 C18         -0.0790     1.0890    10.0890 ca         1 E4S      -0.144000
     19 C19          1.2520     1.0900     9.7220 ca         1 E4S      -0.053500
     20 C20         -3.0980    -0.2110     8.9860 c3         1 E4S       0.093300
     21 C21         -4.5590    -0.2650     9.4450 c3         1 E4S       0.213900
     22 C22         -4.0530     1.1730    11.2910 c3         1 E4S       0.213900
     23 C23         -2.5870     1.2420    10.8520 c3         1 E4S       0.093300
     24 C24          4.4850    -2.6370    -0.4580 ca         1 E4S       0.070600
     25 C25          4.4810    -2.8210     0.9180 ca         1 E4S      -0.163000
     26 C26          4.8890    -4.0290     1.4520 ca         1 E4S      -0.070000
     27 C27          5.3020    -5.0520     0.6190 ca         1 E4S      -0.106000
     28 C28          5.3080    -4.8720    -0.7520 ca         1 E4S      -0.099000
     29 C29          4.9000    -3.6670    -1.2940 ca         1 E4S       0.062900
     30 F01          4.9050    -3.4920    -2.6340 f          1 E4S      -0.125900
     31 N01          1.3160     0.0060     2.3120 nb         1 E4S      -0.679000
     32 N02          5.3270    -0.0020     8.8430 nd         1 E4S      -0.530100
     33 N03          4.1320    -0.0020    10.9080 nv         1 E4S      -0.553800
     34 N04          3.1410    -0.0000     8.6820 na         1 E4S       0.410600
     35 N05         -2.2310    -0.0030    10.1550 nh         1 E4S      -0.356000
     36 N06          4.0660    -1.4180    -1.0020 nu         1 E4S      -0.377500
     37 O01          1.4290     0.0000     0.0000 os         1 E4S      -0.424100
     38 O02         -4.8770     0.9380    10.1470 os         1 E4S      -0.407600
     39 O03          3.8750     1.0430    -1.0220 o          1 E4S      -0.571300
     40 O04          5.7520    -0.0700     0.1950 o          1 E4S      -0.571300
     41 S01          4.3910    -0.0020    -0.2080 sy         1 E4S       1.048200
     42 H03         -0.3610    -0.8790     0.5200 h1         1 E4S       0.002700
     43 H02         -0.3610     0.8900     0.5020 h1         1 E4S       0.002700
     44 H01         -0.3610    -0.0110    -1.0210 h1         1 E4S       0.002700
     45 H04          5.1350    -0.0010     2.5820 ha         1 E4S       0.148000
     46 H05          1.2370     0.0030     4.3900 h4         1 E4S      -0.012900
     47 H06          1.9890     0.1100     6.0350 ha         1 E4S       0.110000
     48 H08          6.9210    -0.0080     6.4570 ha         1 E4S       0.113000
     49 H07          5.8840    -0.0150     4.2440 ha         1 E4S       0.116000
     50 H11          1.4030    -1.9420     8.2210 ha         1 E4S       0.115000
     51 H13         -0.9730    -1.9440     8.8750 ha         1 E4S       0.124500
     52 H14         -0.4970     1.9400    10.6130 ha         1 E4S       0.124500
     53 H12          1.8780     1.9420     9.9590 ha         1 E4S       0.115000
     54 H15         -2.9690     0.6090     8.2900 h1         1 E4S       0.027950
     55 H16         -2.8370    -1.1460     8.5050 h1         1 E4S       0.027950
     56 H20         -4.6990    -1.1150    10.1030 h1         1 E4S       0.016200
     57 H19         -5.2050    -0.3600     8.5800 h1         1 E4S       0.016200
     58 H22         -4.1790     0.3630    11.9990 h1         1 E4S       0.016200
     59 H21         -4.3350     2.1120    11.7530 h1         1 E4S       0.016200
     60 H17         -2.4510     2.0820    10.1820 h1         1 E4S       0.027950
     61 H18         -1.9550     1.3600    11.7240 h1         1 E4S       0.027950
     62 H24          4.1580    -2.0200     1.5720 ha         1 E4S       0.131000
     63 H25          4.8860    -4.1740     2.5250 ha         1 E4S       0.105000
     64 H26          5.6210    -5.9970     1.0420 ha         1 E4S       0.108000
     65 H27          5.6320    -5.6760    -1.4020 ha         1 E4S       0.117000
     66 H09          4.3170     0.8380    11.4200 hn         1 E4S       0.275800
     67 H10          3.9390    -0.8530    11.3980 hn         1 E4S       0.275800
     68 H23          3.6200    -1.3980    -1.8970 hn         1 E4S       0.355800
@<TRIPOS>BOND
     1     1    37 1   
     2     1    42 1   
     3     1    43 1   
     4     1    44 1   
     5     2     3 ar  
     6     2    31 ar  
     7     2    37 1   
     8     3     4 ar  
     9     3    41 1   
    10     4     5 ar  
    11     4    45 1   
    12     5     6 ar  
    13     5     7 1   
    14     6    31 ar  
    15     6    46 1   
    16     7     8 ar  
    17     7    12 ar  
    18     8     9 ar  
    19     8    47 1   
    20     9    10 ar  
    21     9    34 1   
    22    10    11 ar  
    23    10    32 1   
    24    11    12 ar  
    25    11    48 1   
    26    12    49 1   
    27    13    32 2   
    28    13    33 1   
    29    13    34 1   
    30    14    15 ar  
    31    14    19 ar  
    32    14    34 1   
    33    15    16 ar  
    34    15    50 1   
    35    16    17 ar  
    36    16    51 1   
    37    17    18 ar  
    38    17    35 1   
    39    18    19 ar  
    40    18    52 1   
    41    19    53 1   
    42    20    21 1   
    43    20    35 1   
    44    20    54 1   
    45    20    55 1   
    46    21    38 1   
    47    21    56 1   
    48    21    57 1   
    49    22    23 1   
    50    22    38 1   
    51    22    58 1   
    52    22    59 1   
    53    23    35 1   
    54    23    60 1   
    55    23    61 1   
    56    24    25 ar  
    57    24    29 ar  
    58    24    36 1   
    59    25    26 ar  
    60    25    62 1   
    61    26    27 ar  
    62    26    63 1   
    63    27    28 ar  
    64    27    64 1   
    65    28    29 ar  
    66    28    65 1   
    67    29    30 1   
    68    33    66 1   
    69    33    67 1   
    70    36    41 1   
    71    36    68 1   
    72    39    41 2   
    73    40    41 2   
@<TRIPOS>SUBSTRUCTURE
     1 E4S         1 TEMP              0 ****  ****    0 ROOT
