@<TRIPOS>MOLECULE
molecule
   27    29     1     0     0
SMALL
bcc


@<TRIPOS>ATOM
      1 N12          0.0000     0.0000     0.0000 na         1 E4V      -0.285100
      2 C13          1.3710     0.0000     0.0000 cc         1 E4V      -0.113100
      3 C15          0.6540     0.0080     2.1370 ca         1 E4V      -0.205100
      4 C02          3.6910     0.0260     6.1700 ca         1 E4V       0.582900
      5 C03          3.8990     0.0210     4.7910 ca         1 E4V       0.230900
      6 C05          1.6290     0.0190     4.4570 cp         1 E4V       0.287500
      7 C06          0.4710     0.0140     3.5340 cp         1 E4V      -0.043500
      8 C07         -0.8350     0.0160     4.0200 ca         1 E4V      -0.290300
      9 C08         -1.8940     0.0200     3.1180 ca         1 E4V       0.706200
     10 C11         -0.4690     0.0050     1.2920 ca         1 E4V       0.480800
     11 C14          1.8260     0.0000     1.2630 cd         1 E4V      -0.164200
     12 C16          1.4230     0.0240     5.8350 ca         1 E4V       0.368900
     13 N04          2.8680     0.0170     3.9700 nb         1 E4V      -0.604000
     14 N09         -3.1980     0.0220     3.6020 nv         1 E4V      -1.077500
     15 N10         -1.6910     0.0100     1.8120 nb         1 E4V      -0.742000
     16 N17          2.4560     0.0290     6.6570 nb         1 E4V      -0.730000
     17 H1          -0.5740    -0.0000    -0.8200 hn         1 E4V       0.301700
     18 H2           1.9930    -0.0000    -0.8860 h4         1 E4V       0.167000
     19 H3           4.9070     0.0190     4.3950 h4         1 E4V       0.026100
     20 H4          -1.0210    -0.1540     5.0730 ha         1 E4V       0.141000
     21 H5           2.8630     0.0000     1.5750 ha         1 E4V       0.174000
     22 H6           0.4150     0.0260     6.2320 h4         1 E4V       0.036100
     23 H7           5.7090     0.0170     6.6680 hn         1 E4V       0.442800
     24 H8           4.6300     0.0540     8.0240 hn         1 E4V       0.442800
     25 H9          -3.7360    -0.8210     3.5930 hn         1 E4V       0.434800
     26 H10         -3.5970     0.8670     3.9610 hn         1 E4V       0.434800
     27 N01          4.7780     0.0360     7.0350 nv         1 E4V      -1.002500
@<TRIPOS>BOND
     1    27     4 1
     2     4    16 ar
     3     4     5 ar
     4    16    12 ar
     5     5    13 ar
     6    12     6 ar
     7    13     6 ar
     8     6     7 1
     9     8     7 ar
    10     8     9 ar
    11    14     9 1
    12     7     3 ar
    13     9    15 ar
    14     3    10 ar
    15     3    11 1
    16    15    10 ar
    17    10     1 1
    18    11     2 2
    19     1     2 1
    20     1    17 1
    21     2    18 1
    22     5    19 1
    23     8    20 1
    24    11    21 1
    25    12    22 1
    26    27    23 1
    27    27    24 1
    28    14    25 1
    29    14    26 1
@<TRIPOS>SUBSTRUCTURE
     1 E4V         1 TEMP              0 ****  ****    0 ROOT
