@<TRIPOS>MOLECULE
molecule
   53    58     1     0     0
SMALL
bcc


@<TRIPOS>ATOM
      1 C1           0.0000     0.0000     0.0000 c          1 E4Z       0.540500
      2 N1           1.4420    -0.0070     2.3580 na         1 E4Z      -0.253000
      3 O1          -0.6300    -0.0220    -1.0470 o          1 E4Z      -0.570100
      4 C2           1.4110     0.0000     0.0000 cc         1 E4Z      -0.326200
      5 O2          -2.0450     0.0570     1.3680 oh         1 E4Z      -0.468100
      6 O3          -1.7100    -0.2360     3.9490 o          1 E4Z      -0.587500
      7 C4           0.0690     0.0390     2.4300 cc         1 E4Z       0.019800
      8 O4           1.7730     1.2540     6.9340 os         1 E4Z      -0.416600
      9 C5          -0.6910     0.0330     1.2990 cd         1 E4Z       0.018900
     10 C6          -0.5590     0.1110     3.7680 c          1 E4Z       0.728700
     11 C7           1.6140     0.8600     4.5330 c3         1 E4Z       0.308900
     12 C13          4.4520    -0.4870     5.6130 ca         1 E4Z      -0.058300
     13 C14          4.0940    -1.9490     5.6870 c3         1 E4Z       0.027000
     14 C15          3.7750    -2.2680     2.9250 ca         1 E4Z       0.032900
     15 C16          4.1180    -1.0060     2.5420 ca         1 E4Z      -0.076300
     16 C17          4.1360    -3.3700     2.1550 ca         1 E4Z      -0.077000
     17 C18          4.8920    -3.1740     1.0130 ca         1 E4Z      -0.120000
     18 C19          5.2820    -1.8960     0.6520 ca         1 E4Z      -0.103000
     19 C20          4.8990    -0.8070     1.4140 ca         1 E4Z      -0.138000
     20 C21          4.5980     1.7620     4.8130 ca         1 E4Z      -0.123000
     21 C22          5.2440     2.1810     5.9500 ca         1 E4Z      -0.148000
     22 C23          5.5150     1.2560     6.9440 ca         1 E4Z       0.129900
     23 C24          5.1200    -0.0500     6.7730 ca         1 E4Z       0.077900
     24 F2           6.1610     1.6320     8.0690 f          1 E4Z      -0.113900
     25 C12          4.2110     0.4280     4.6280 ca         1 E4Z      -0.082300
     26 F1           5.3790    -0.9450     7.7510 f          1 E4Z      -0.119900
     27 S3           2.9150    -2.4970     4.4440 ss         1 E4Z      -0.204000
     28 C11          3.5820     0.1520     3.3090 c3         1 E4Z       0.255100
     29 N2           2.1470    -0.0740     3.5290 nh         1 E4Z      -0.412400
     30 C8           2.4690     0.7740     5.7880 c3         1 E4Z       0.055400
     31 C9           0.5750     0.5380     7.2130 c3         1 E4Z       0.104400
     32 C10         -0.4220     0.8040     6.0860 c3         1 E4Z       0.074000
     33 N3           0.2100     0.5860     4.7870 n          1 E4Z      -0.494800
     34 C3           2.0820     0.0000     1.1750 cd         1 E4Z       0.057000
     35 H1           1.9530     0.1010    -0.9330 ha         1 E4Z       0.166000
     36 H3           1.6950     1.8650     4.1370 h2         1 E4Z       0.037700
     37 H5           5.0050    -2.5190     5.5530 h1         1 E4Z       0.099200
     38 H6           3.8270    -4.3680     2.4440 ha         1 E4Z       0.155000
     39 H7           5.1950    -4.0220     0.4120 ha         1 E4Z       0.143000
     40 H8           5.8740    -1.7460    -0.2420 ha         1 E4Z       0.141000
     41 H9           5.2050     0.1930     1.1310 ha         1 E4Z       0.139000
     42 H10          4.3840     2.4840     4.0340 ha         1 E4Z       0.149000
     43 H11          5.5450     3.2150     6.0630 ha         1 E4Z       0.166000
     44 H12          3.6970     1.0370     2.6960 h1         1 E4Z       0.055700
     45 H13          3.3640     1.3690     5.6460 h1         1 E4Z       0.097200
     46 H14          2.7480    -0.2590     5.9540 h1         1 E4Z       0.097200
     47 H15          0.1540     0.9890     8.1030 h1         1 E4Z       0.069200
     48 H16          0.8300    -0.5130     7.1500 h1         1 E4Z       0.069200
     49 H17         -1.1840     0.0400     6.1780 h1         1 E4Z       0.080200
     50 H18         -0.6470     1.8630     6.1330 h1         1 E4Z       0.080200
     51 H19          3.1650     0.0000     1.1640 h4         1 E4Z       0.179000
     52 H20         -2.3930    -0.7370     0.9970 ho         1 E4Z       0.437000
     53 H4           3.6560    -2.1320     6.6610 h1         1 E4Z       0.099200
@<TRIPOS>BOND
     1    31     8 1
     2    31    32 1
     3     8    30 1
     4    32    33 1
     5    30    11 1
     6     6    10 2
     7    33    10 1
     8    33    11 1
     9    10     7 1
    10    11    29 1
    11     5     9 1
    12     7     9 2
    13     7     2 1
    14     9     1 1
    15    29     2 1
    16    29    28 1
    17     2    34 1
    18     1     3 2
    19     1     4 1
    20    34     4 2
    21    28    25 1
    22    28    15 1
    23    20    21 ar
    24    20    25 ar
    25    21    22 ar
    26    25    12 ar
    27    22    24 1
    28    22    23 ar
    29    12    23 ar
    30    12    13 1
    31    23    26 1
    32    13    27 1
    33    15    19 ar
    34    15    14 ar
    35    19    18 ar
    36    27    14 1
    37    14    16 ar
    38    18    17 ar
    39    16    17 ar
    40     4    35 1
    41    11    36 1
    42    13    53 1
    43    13    37 1
    44    16    38 1
    45    17    39 1
    46    18    40 1
    47    19    41 1
    48    20    42 1
    49    21    43 1
    50    28    44 1
    51    30    45 1
    52    30    46 1
    53    31    47 1
    54    31    48 1
    55    32    49 1
    56    32    50 1
    57    34    51 1
    58     5    52 1
@<TRIPOS>SUBSTRUCTURE
     1 E4Z         1 TEMP              0 ****  ****    0 ROOT
