@<TRIPOS>MOLECULE
E50
   38    39     1     0     0
SMALL
bcc


@<TRIPOS>ATOM
      1 N1           0.0000     0.0000     0.0000 nb         1 E50      -0.622000
      2 C2           1.3260     0.0000     0.0000 ca         1 E50       0.721300
      3 N3           2.0190     0.0000     1.1290 nb         1 E50      -0.622000
      4 C4           1.4040     0.0000     2.3010 ca         1 E50       0.459200
      5 C5           0.0180    -0.0010     2.3360 ca         1 E50      -0.323900
      6 C6          -0.6770     0.0000     1.1370 ca         1 E50       0.459200
      7 S7           2.1860    -0.0000    -1.5380 ss         1 E50      -0.312400
      8 C8           3.8950     0.0000    -0.9420 c3         1 E50      -0.031300
      9 C9           4.8370     0.0000    -2.1180 c          1 E50       0.624700
     10 O10          4.3960    -0.0000    -3.2470 o          1 E50      -0.493100
     11 C11         -0.7180    -0.0010     3.6520 c3         1 E50       0.040900
     12 C12         -0.9670     1.4410     4.0980 c3         1 E50       0.008900
     13 C13          6.2910    -0.0000    -1.8960 ca         1 E50      -0.179600
     14 C14          7.1680     0.0050    -2.9850 ca         1 E50       0.093000
     15 C15          8.5290     0.0060    -2.7690 ca         1 E50      -0.231500
     16 C16          9.0290     0.0010    -1.4770 ca         1 E50       0.034400
     17 C17          8.1660    -0.0040    -0.3930 ca         1 E50      -0.101000
     18 C18          6.8030     0.0010    -0.5940 ca         1 E50       0.038000
     19 S19          9.6370     0.0120    -4.1400 sy         1 E50       0.942200
     20 O20         10.5910    -1.0090    -3.8890 o          1 E50      -0.486800
     21 Cl21        10.7450     0.0020    -1.2150 cl         1 E50       0.028600
     22 O22          8.8280     0.0510    -5.3080 o          1 E50      -0.486800
     23 N23         10.4630     1.4470    -4.0950 nz         1 E50      -0.145500
     24 H4           1.9760    -0.0000     3.2210 h4         1 E50      -0.005900
     25 H6          -1.7600    -0.0000     1.1300 h4         1 E50      -0.005900
     26 H8           4.0680    -0.8840    -0.3410 h1         1 E50       0.069200
     27 H8A          4.0680     0.8850    -0.3410 h1         1 E50       0.069200
     28 H11         -0.1220    -0.5120     4.3980 hc         1 E50       0.023200
     29 H11A        -1.6660    -0.5120     3.5350 hc         1 E50       0.023200
     30 H12         -1.5230     1.4410     5.0280 hc         1 E50       0.007033
     31 H12A        -0.0190     1.9430     4.2440 hc         1 E50       0.007033
     32 H12B        -1.5370     1.9610     3.3370 hc         1 E50       0.007033
     33 H14          6.7790     0.0090    -3.9960 ha         1 E50       0.159000
     34 H17          8.5640    -0.0060     0.6140 ha         1 E50       0.143000
     35 H18          6.1300    -0.0040     0.2550 ha         1 E50       0.136000
     36 HN23        10.8790     1.6200    -4.9890 hn         1 E50       0.317467
     37 HN2A         9.8310     2.1900    -3.8730 hn         1 E50       0.317467
     38 H233        11.1790     1.3980    -3.3980 hn         1 E50       0.317467
@<TRIPOS>BOND
     1     1     2 ar  
     2     1     6 ar  
     3     2     3 ar  
     4     2     7 1   
     5     3     4 ar  
     6     4     5 ar  
     7     4    24 1   
     8     5     6 ar  
     9     5    11 1   
    10     6    25 1   
    11     7     8 1   
    12     8     9 1   
    13     8    26 1   
    14     8    27 1   
    15     9    10 2   
    16     9    13 1   
    17    11    12 1   
    18    11    28 1   
    19    11    29 1   
    20    12    30 1   
    21    12    31 1   
    22    12    32 1   
    23    13    14 ar  
    24    13    18 ar  
    25    14    15 ar  
    26    14    33 1   
    27    15    16 ar  
    28    15    19 1   
    29    16    17 ar  
    30    16    21 1   
    31    17    18 ar  
    32    17    34 1   
    33    18    35 1   
    34    19    20 2   
    35    19    22 2   
    36    19    23 1   
    37    23    36 1   
    38    23    37 1   
    39    23    38 1   
@<TRIPOS>SUBSTRUCTURE
     1 E50         1 TEMP              0 ****  ****    0 ROOT
