@<TRIPOS>MOLECULE
molecule
   57    59     1     0     0
SMALL
bcc


@<TRIPOS>ATOM
      1 O1           0.0000     0.0000     0.0000 o          1 E57      -0.602100
      2 C8           1.2170     0.0000     0.0000 c          1 E57       0.705700
      3 N1           1.8910     0.0000     1.1660 ns         1 E57      -0.579900
      4 C7           1.1590    -0.0010     2.4350 c3         1 E57       0.175000
      5 C22          0.7940     1.4350     2.8150 c3         1 E57       0.126400
      6 O3           1.9880     2.1790     3.0680 oh         1 E57      -0.617800
      7 C3           2.0230    -0.6010     3.5140 ca         1 E57      -0.086300
      8 C2           1.4660    -1.4450     4.4560 ca         1 E57      -0.112000
      9 C4           3.3750    -0.3120     3.5580 ca         1 E57      -0.106000
     10 C5           4.1680    -0.8640     4.5450 ca         1 E57      -0.121000
     11 C6           3.6110    -1.7040     5.4920 ca         1 E57      -0.118000
     12 C1           2.2600    -1.9980     5.4460 ca         1 E57       0.029400
     13 Cl           1.5610    -3.0570     6.6290 cl         1 E57      -0.105400
     14 C9           1.9510    -0.0060    -1.2710 cc         1 E57      -0.211900
     15 C12          1.3930    -0.0110    -2.5170 cd         1 E57      -0.064000
     16 C11          2.4540    -0.0140    -3.4460 cd         1 E57      -0.248500
     17 C10          3.6270    -0.0100    -2.7250 cc         1 E57      -0.111300
     18 N2           3.3200     0.0000    -1.4130 na         1 E57      -0.145100
     19 C13          2.3290    -0.0210    -4.9230 ca         1 E57       0.601800
     20 C16          3.2520     0.6680    -5.7150 ca         1 E57      -0.401900
     21 C17          4.3910     1.4300    -5.0880 c3         1 E57      -0.028800
     22 C15          3.0970     0.6330    -7.0880 ca         1 E57       0.501200
     23 N4           2.0870    -0.0450    -7.6090 nb         1 E57      -0.814000
     24 C14          1.2260    -0.6890    -6.8340 ca         1 E57       0.942900
     25 N3           1.3400    -0.6870    -5.5150 nb         1 E57      -0.788000
     26 N5           0.1820    -1.3870    -7.4190 nu         1 E57      -0.884900
     27 C18          0.0410    -1.4070    -8.8760 c3         1 E57       0.257500
     28 C21         -0.7290    -0.1650    -9.3320 c3         1 E57       0.120400
     29 O2          -2.0620    -0.2180    -8.8220 oh         1 E57      -0.613800
     30 C19         -0.7240    -2.6640    -9.2980 c3         1 E57      -0.095400
     31 C20          0.1050    -3.9040    -8.9540 c3         1 E57      -0.094100
     32 H8           2.8910    -0.0250     1.1660 hn         1 E57       0.311500
     33 H1           0.2540    -0.5870     2.3300 h1         1 E57       0.095700
     34 H25          0.1780     1.4280     3.7060 h1         1 E57       0.039700
     35 H24          0.2470     1.8970     2.0020 h1         1 E57       0.039700
     36 H26          1.7660     3.0730     3.2670 ho         1 E57       0.406000
     37 H4           0.4080    -1.6750     4.4200 ha         1 E57       0.147000
     38 H5           3.8120     0.3460     2.8170 ha         1 E57       0.136000
     39 H6           5.2260    -0.6360     4.5800 ha         1 E57       0.137000
     40 H7           4.2340    -2.1360     6.2660 ha         1 E57       0.145000
     41 H10          0.3350    -0.0130    -2.7490 ha         1 E57       0.183000
     42 H9           4.6270    -0.0090    -3.1410 h4         1 E57       0.178000
     43 H2           3.9810     0.0050    -0.6630 hn         1 E57       0.295700
     44 H12          4.8010     2.1260    -5.8090 hc         1 E57       0.038700
     45 H14          4.0280     1.9760    -4.2250 hc         1 E57       0.038700
     46 H13          5.1630     0.7360    -4.7770 hc         1 E57       0.038700
     47 H11          3.7940     1.1560    -7.7320 h4         1 E57       0.024100
     48 H15         -0.4690    -1.8860    -6.8460 hn         1 E57       0.464800
     49 H3           1.0230    -1.4120    -9.3340 h1         1 E57       0.082700
     50 H21         -0.7570    -0.1350   -10.4140 h1         1 E57       0.031200
     51 H22         -0.2340     0.7230    -8.9580 h1         1 E57       0.031200
     52 H23         -2.5210     0.5700    -9.0600 ho         1 E57       0.401000
     53 H16         -0.9050    -2.6350   -10.3650 hc         1 E57       0.057200
     54 H17         -1.6700    -2.7050    -8.7720 hc         1 E57       0.057200
     55 H19         -0.2230    -4.7370    -9.5640 hc         1 E57       0.035700
     56 H20          1.1510    -3.7040    -9.1480 hc         1 E57       0.035700
     57 H18         -0.0280    -4.1490    -7.9070 hc         1 E57       0.035700
@<TRIPOS>BOND
     1    29    28 1
     2     6     5 1
     3    28    27 1
     4    30    27 1
     5    30    31 1
     6     5     4 1
     7    27    26 1
     8    18    17 1
     9    18    14 1
    10    17    16 2
    11     4     3 1
    12     4     7 1
    13     3     2 1
    14    26    24 1
    15    25    24 ar
    16    25    19 ar
    17    14     2 1
    18    14    15 2
    19    24    23 ar
    20    16    19 1
    21    16    15 1
    22     2     1 2
    23     7     8 ar
    24     7     9 ar
    25     8    12 ar
    26    19    20 ar
    27     9    10 ar
    28    23    22 ar
    29    12    13 1
    30    12    11 ar
    31    20    22 ar
    32    20    21 1
    33    10    11 ar
    34     3    32 1
    35     4    33 1
    36     5    34 1
    37     5    35 1
    38     6    36 1
    39     8    37 1
    40     9    38 1
    41    10    39 1
    42    11    40 1
    43    15    41 1
    44    17    42 1
    45    18    43 1
    46    21    44 1
    47    21    45 1
    48    21    46 1
    49    22    47 1
    50    26    48 1
    51    27    49 1
    52    28    50 1
    53    28    51 1
    54    29    52 1
    55    30    53 1
    56    30    54 1
    57    31    55 1
    58    31    56 1
    59    31    57 1
@<TRIPOS>SUBSTRUCTURE
     1 E57         1 TEMP              0 ****  ****    0 ROOT
