@<TRIPOS>MOLECULE
molecule
   36    37     1     0     0
SMALL
bcc


@<TRIPOS>ATOM
      1 N1           0.0000     0.0000     0.0000 ns         1 E59      -0.426400
      2 C2           1.3500     0.0000     0.0000 c          1 E59       0.687700
      3 C3           2.0260     0.0000     1.2330 cc         1 E59      -0.303200
      4 C4           1.2960     0.0010     2.3860 cd         1 E59       0.190400
      5 N5          -0.0340     0.0010     2.3350 nd         1 E59      -0.707300
      6 C6          -0.6750     0.0010     1.1820 cc         1 E59       0.502800
      7 O7           1.9720    -0.0010    -1.0500 o          1 E59      -0.617500
      8 C8           1.9970     0.0000     3.7200 c3         1 E59      -0.042900
      9 S9          -2.4380     0.0090     1.1720 ss         1 E59      -0.101300
     10 C10         -2.7610     0.0070     2.9530 c3         1 E59      -0.110300
     11 C11         -4.2490     0.0130     3.1930 c          1 E59       0.567700
     12 O12         -5.0150     0.0190     2.2530 o          1 E59      -0.462100
     13 C13         -4.7730     0.0140     4.5690 ca         1 E59      -0.069600
     14 C14         -3.8930     0.0130     5.6560 ca         1 E59      -0.089000
     15 C15         -4.3920     0.0130     6.9410 ca         1 E59      -0.036000
     16 C16         -5.7590     0.0130     7.1580 ca         1 E59      -0.328500
     17 C17         -6.6360     0.0130     6.0860 ca         1 E59      -0.036000
     18 C18         -6.1530     0.0190     4.7950 ca         1 E59      -0.089000
     19 S19         -6.3850     0.0130     8.8040 sy         1 E59       1.229200
     20 O20         -7.6970    -0.5310     8.7340 o          1 E59      -0.512800
     21 O21         -5.3610    -0.5320     9.6230 o          1 E59      -0.512800
     22 N22         -6.5600     1.5950     9.2620 nz         1 E59      -0.807500
     23 H1          -0.5020     0.0000    -0.8660 hn         1 E59       0.348500
     24 H3           3.1090    -0.0000     1.2680 ha         1 E59       0.177000
     25 H8           2.8480     0.6690     3.6810 hc         1 E59       0.056367
     26 H8A          1.3100     0.3340     4.4880 hc         1 E59       0.056367
     27 H8B          2.3360    -1.0030     3.9490 hc         1 E59       0.056367
     28 H10         -2.3280    -0.8800     3.3980 h1         1 E59       0.107700
     29 H10A        -2.3200     0.8890     3.4020 h1         1 E59       0.107700
     30 H14         -2.8230     0.0130     5.4880 ha         1 E59       0.180500
     31 H15         -3.7110     0.0120     7.7850 ha         1 E59       0.162000
     32 H17         -7.7050     0.0150     6.2630 ha         1 E59       0.162000
     33 H18         -6.8410     0.0190     3.9580 ha         1 E59       0.180500
     34 HN22        -7.1940     2.0540     8.6390 hn         1 E59       0.493467
     35 HN2A        -5.6700     2.0520     9.2300 hn         1 E59       0.493467
     36 H223        -6.9210     1.6340    10.1950 hn         1 E59       0.493467
@<TRIPOS>BOND
     1     1     6 1
     2     2     1 1
     3     2     3 1
     4     3     4 2
     5     4     5 1
     6     4     8 1
     7     6     5 2
     8     6     9 1
     9     7     2 2
    10    10     9 1
    11    10    11 1
    12    11    13 1
    13    12    11 2
    14    13    18 ar
    15    13    14 ar
    16    14    15 ar
    17    15    16 ar
    18    16    19 1
    19    17    16 ar
    20    18    17 ar
    21    19    21 2
    22    20    19 2
    23    22    19 1
    24     1    23 1
    25     3    24 1
    26     8    25 1
    27     8    26 1
    28     8    27 1
    29    10    28 1
    30    10    29 1
    31    14    30 1
    32    15    31 1
    33    17    32 1
    34    18    33 1
    35    22    34 1
    36    22    35 1
    37    36    22 1
@<TRIPOS>SUBSTRUCTURE
     1 E59         1 TEMP              0 ****  ****    0 ROOT
