@<TRIPOS>MOLECULE
E5E
   24    24     1     0     0
SMALL
bcc


@<TRIPOS>ATOM
      1 OAC          0.0000     0.0000     0.0000 oh         1 E5E      -0.473100
      2 CAJ          1.3600     0.0000     0.0000 ca         1 E5E       0.114100
      3 CAG          2.0550     0.0000     1.1980 ca         1 E5E      -0.120000
      4 CAI          2.0580    -0.0050    -1.2050 ca         1 E5E       0.146100
      5 OAB          1.3800    -0.0100    -2.3840 oh         1 E5E      -0.479100
      6 CAE          3.4430    -0.0050    -1.2000 ca         1 E5E      -0.127000
      7 CAF          4.1300     0.0010    -0.0010 ca         1 E5E      -0.057000
      8 CAK          3.4380    -0.0050     1.1960 ca         1 E5E      -0.185300
      9 CAL          4.1920     0.0010     2.5010 c3         1 E5E       0.259400
     10 OAD          5.3930    -0.7620     2.3600 oh         1 E5E      -0.597800
     11 CAH          4.5430     1.4400     2.8800 c3         1 E5E      -0.063200
     12 NAA          5.2780     1.4460     4.1520 nz         1 E5E       0.087400
     13 HOAC        -0.3140     0.8490     0.2650 ho         1 E5E       0.411000
     14 HAG          1.5160    -0.0050     2.1370 ha         1 E5E       0.112000
     15 HOAB         1.4540    -0.8600    -2.7850 ho         1 E5E       0.421000
     16 HAE          3.9880    -0.0040    -2.1360 ha         1 E5E       0.130000
     17 HAF          5.2130    -0.0000     0.0010 ha         1 E5E       0.118000
     18 HAL          3.5750    -0.4360     3.2760 h1         1 E5E       0.016700
     19 HOAD         5.2660    -1.6190     2.7330 ho         1 E5E       0.428000
     20 HAH          5.1610     1.8780     2.1050 hx         1 E5E       0.093700
     21 HAHA         3.6330     2.0180     2.9860 hx         1 E5E       0.093700
     22 HNAA         4.8050     0.8610     4.8130 hn         1 E5E       0.223467
     23 HNAB         5.3240     2.3810     4.5070 hn         1 E5E       0.223467
     24 HNAC         6.2050     1.0990     4.0040 hn         1 E5E       0.223467
@<TRIPOS>BOND
     1     1     2 1   
     2     1    13 1   
     3     2     3 ar  
     4     2     4 ar  
     5     3     8 ar  
     6     3    14 1   
     7     4     5 1   
     8     4     6 ar  
     9     5    15 1   
    10     6     7 ar  
    11     6    16 1   
    12     7     8 ar  
    13     7    17 1   
    14     8     9 1   
    15     9    10 1   
    16     9    11 1   
    17     9    18 1   
    18    10    19 1   
    19    11    12 1   
    20    11    20 1   
    21    11    21 1   
    22    12    22 1   
    23    12    23 1   
    24    12    24 1   
@<TRIPOS>SUBSTRUCTURE
     1 E5E         1 TEMP              0 ****  ****    0 ROOT
