@<TRIPOS>MOLECULE
molecule
   24    24     1     0     0
SMALL
bcc


@<TRIPOS>ATOM
      1 OAC          0.0000     0.0000     0.0000 oh         1 E5E      -0.493100
      2 CAJ          1.3600     0.0000     0.0000 ca         1 E5E       0.104100
      3 CAG          2.0550     0.0000     1.1980 ca         1 E5E      -0.144000
      4 CAI          2.0580    -0.0050    -1.2050 ca         1 E5E       0.135100
      5 OAB          1.3800    -0.0100    -2.3840 oh         1 E5E      -0.497100
      6 CAE          3.4430    -0.0050    -1.2000 ca         1 E5E      -0.150000
      7 CAF          4.1300     0.0010    -0.0010 ca         1 E5E      -0.087000
      8 CAK          3.4380    -0.0050     1.1960 ca         1 E5E      -0.161300
      9 CAL          4.1920     0.0010     2.5010 c3         1 E5E       0.184400
     10 OAD          5.3930    -0.7620     2.3600 oh         1 E5E      -0.612800
     11 CAH          4.5430     1.4400     2.8800 c3         1 E5E       0.094800
     12 NAA          5.2780     1.4460     4.1520 nz         1 E5E      -0.810600
     13 HOAC        -0.3140     0.8490     0.2650 ho         1 E5E       0.431000
     14 HAG          1.5160    -0.0050     2.1370 ha         1 E5E       0.139000
     15 HOAB         1.4540    -0.8600    -2.7850 ho         1 E5E       0.441000
     16 HAE          3.9880    -0.0040    -2.1360 ha         1 E5E       0.163000
     17 HAF          5.2130    -0.0000     0.0010 ha         1 E5E       0.149000
     18 HAL          3.5750    -0.4360     3.2760 h1         1 E5E       0.053700
     19 HOAD         5.2660    -1.6190     2.7330 ho         1 E5E       0.439000
     20 HAH          5.1610     1.8780     2.1050 hx         1 E5E       0.122200
     21 HAHA         3.6330     2.0180     2.9860 hx         1 E5E       0.122200
     22 HNAA         4.8050     0.8610     4.8130 hn         1 E5E       0.458467
     23 HNAB         5.3240     2.3810     4.5070 hn         1 E5E       0.458467
     24 HNAC         6.2050     1.0990     4.0040 hn         1 E5E       0.458467
@<TRIPOS>BOND
     1    10     9 1
     2     9     8 1
     3     9    11 1
     4     8     7 ar
     5     8     3 ar
     6     7     6 ar
     7     3     2 ar
     8     6     4 ar
     9     2     4 ar
    10     2     1 1
    11     4     5 1
    12    11    12 1
    13     1    13 1
    14     3    14 1
    15     5    15 1
    16     6    16 1
    17     7    17 1
    18     9    18 1
    19    10    19 1
    20    11    20 1
    21    11    21 1
    22    12    22 1
    23    12    23 1
    24    12    24 1
@<TRIPOS>SUBSTRUCTURE
     1 E5E         1 TEMP              0 ****  ****    0 ROOT
