@<TRIPOS>MOLECULE
E5H
   54    56     1     0     0
SMALL
bcc


@<TRIPOS>ATOM
      1 O01          0.0000     0.0000     0.0000 o          1 E5H      -0.616100
      2 C02          1.2120     0.0000     0.0000 c          1 E5H       0.560100
      3 N03          1.8860     0.0000     1.1670 ns         1 E5H      -0.201900
      4 C04          1.1540     0.0000     2.4350 c3         1 E5H       0.053000
      5 C05          2.1480     0.0010     3.5980 c3         1 E5H      -0.052400
      6 C06          1.3830     0.0020     4.9240 c3         1 E5H       0.160800
      7 N07          2.3370     0.0020     6.0400 n3         1 E5H      -0.541600
      8 C08          3.1070    -1.2490     6.0750 c3         1 E5H       0.151300
      9 C09          4.1870    -1.1560     7.1560 c3         1 E5H      -0.023900
     10 C10          3.5240    -0.9040     8.5130 c3         1 E5H      -0.026400
     11 C11          2.6900     0.3790     8.4340 c3         1 E5H      -0.023900
     12 C12          1.6540     0.2400     7.3180 c3         1 E5H       0.151300
     13 C13          1.9660    -0.0070    -1.3050 c3         1 E5H       0.134400
     14 O14          1.0370    -0.0120    -2.3910 os         1 E5H      -0.265900
     15 C15          1.5570    -0.0190    -3.6470 ca         1 E5H       0.147100
     16 C16          2.9330    -0.0260    -3.8270 ca         1 E5H      -0.173000
     17 C17          3.4630    -0.0330    -5.1010 ca         1 E5H      -0.056000
     18 C18          2.6150    -0.0330    -6.2060 cp         1 E5H      -0.074000
     19 C19          3.1820    -0.0410    -7.5780 cp         1 E5H      -0.019000
     20 C25          1.2340    -0.0260    -6.0220 ca         1 E5H      -0.056000
     21 C26          0.7100    -0.0240    -4.7470 ca         1 E5H      -0.173000
     22 H1           2.8870     0.0120     1.1670 hn         1 E5H       0.172500
     23 H2           0.5310     0.8850     2.4920 h1         1 E5H       0.027700
     24 H3           0.5310    -0.8840     2.4930 h1         1 E5H       0.027700
     25 H4           2.7710    -0.8840     3.5410 hc         1 E5H       0.025200
     26 H5           2.7710     0.8850     3.5400 hc         1 E5H       0.025200
     27 H6           0.7590    -0.8830     4.9820 h1         1 E5H       0.012200
     28 H7           0.7600     0.8860     4.9810 h1         1 E5H       0.012200
     29 H9           2.4420    -2.0740     6.3020 h1         1 E5H       0.009450
     30 H10          3.5750    -1.4100     5.1120 h1         1 E5H       0.009450
     31 H11          4.7410    -2.0850     7.1920 hc         1 E5H       0.019200
     32 H12          4.8580    -0.3370     6.9250 hc         1 E5H       0.019200
     33 H13          4.2880    -0.7910     9.2720 hc         1 E5H       0.013200
     34 H14          2.8800    -1.7380     8.7600 hc         1 E5H       0.013200
     35 H15          3.3400     1.2190     8.2210 hc         1 E5H       0.019200
     36 H16          2.1830     0.5370     9.3790 hc         1 E5H       0.019200
     37 H17          1.0740     1.1530     7.2510 h1         1 E5H       0.009450
     38 H18          0.9990    -0.5940     7.5370 h1         1 E5H       0.009450
     39 H19          2.5890    -0.8910    -1.3580 h1         1 E5H       0.013200
     40 H20          2.5890     0.8780    -1.3670 h1         1 E5H       0.013200
     41 H21          3.5910    -0.0260    -2.9670 ha         1 E5H       0.117500
     42 H22          4.5370    -0.0380    -5.2410 ha         1 E5H       0.111500
     43 H26          0.5720    -0.0280    -6.8800 ha         1 E5H       0.111500
     44 H27         -0.3640    -0.0190    -4.6040 ha         1 E5H       0.117500
     45 C1           2.3360    -0.0420    -8.6840 ca         1 E5H      -0.105000
     46 C2           2.8690    -0.0490    -9.9580 ca         1 E5H      -0.095500
     47 C3           4.2410    -0.0570   -10.1370 ca         1 E5H      -0.105000
     48 C4           5.0850    -0.0560    -9.0410 ca         1 E5H      -0.095500
     49 C5           4.5630    -0.0430    -7.7640 ca         1 E5H      -0.105000
     50 H8           1.2610    -0.0360    -8.5460 ha         1 E5H       0.110000
     51 H23          2.2120    -0.0500   -10.8190 ha         1 E5H       0.101500
     52 H24          4.6550    -0.0650   -11.1380 ha         1 E5H       0.102000
     53 H25          6.1590    -0.0600    -9.1860 ha         1 E5H       0.101500
     54 H28          5.2260    -0.0420    -6.9070 ha         1 E5H       0.110000
@<TRIPOS>BOND
     1     1     2 2   
     2     2     3 1   
     3     2    13 1   
     4     3     4 1   
     5     3    22 1   
     6     4     5 1   
     7     4    23 1   
     8     4    24 1   
     9     5     6 1   
    10     5    25 1   
    11     5    26 1   
    12     6     7 1   
    13     6    27 1   
    14     6    28 1   
    15     7     8 1   
    16     7    12 1   
    17     8     9 1   
    18     8    29 1   
    19     8    30 1   
    20     9    10 1   
    21     9    31 1   
    22     9    32 1   
    23    10    11 1   
    24    10    33 1   
    25    10    34 1   
    26    11    12 1   
    27    11    35 1   
    28    11    36 1   
    29    12    37 1   
    30    12    38 1   
    31    13    14 1   
    32    13    39 1   
    33    13    40 1   
    34    14    15 1   
    35    15    16 ar  
    36    15    21 ar  
    37    16    17 ar  
    38    16    41 1   
    39    17    18 ar  
    40    17    42 1   
    41    18    19 1   
    42    18    20 ar  
    43    19    45 ar  
    44    19    49 ar  
    45    20    21 ar  
    46    20    43 1   
    47    21    44 1   
    48    45    46 ar  
    49    45    50 1   
    50    46    47 ar  
    51    46    51 1   
    52    47    48 ar  
    53    47    52 1   
    54    48    49 ar  
    55    48    53 1   
    56    49    54 1   
@<TRIPOS>SUBSTRUCTURE
     1 E5H         1 TEMP              0 ****  ****    0 ROOT
