@<TRIPOS>MOLECULE
molecule
   54    56     1     0     0
SMALL
bcc


@<TRIPOS>ATOM
      1 O01          0.0000     0.0000     0.0000 o          1 E5H      -0.572100
      2 C02          1.2120     0.0000     0.0000 c          1 E5H       0.655100
      3 N03          1.8860     0.0000     1.1670 ns         1 E5H      -0.589900
      4 C04          1.1540     0.0000     2.4350 c3         1 E5H       0.114000
      5 C05          2.1480     0.0010     3.5980 c3         1 E5H      -0.103400
      6 C06          1.3830     0.0020     4.9240 c3         1 E5H       0.167800
      7 N07          2.3370     0.0020     6.0400 n3         1 E5H      -0.730600
      8 C08          3.1070    -1.2490     6.0750 c3         1 E5H       0.163300
      9 C09          4.1870    -1.1560     7.1560 c3         1 E5H      -0.078400
     10 C10          3.5240    -0.9040     8.5130 c3         1 E5H      -0.082400
     11 C11          2.6900     0.3790     8.4340 c3         1 E5H      -0.078400
     12 C12          1.6540     0.2400     7.3180 c3         1 E5H       0.163300
     13 C13          1.9660    -0.0070    -1.3050 c3         1 E5H       0.064400
     14 O14          1.0370    -0.0120    -2.3910 os         1 E5H      -0.293900
     15 C15          1.5570    -0.0190    -3.6470 ca         1 E5H       0.142100
     16 C16          2.9330    -0.0260    -3.8270 ca         1 E5H      -0.187500
     17 C17          3.4630    -0.0330    -5.1010 ca         1 E5H      -0.081500
     18 C18          2.6150    -0.0330    -6.2060 cp         1 E5H      -0.073000
     19 C19          3.1820    -0.0410    -7.5780 cp         1 E5H      -0.026000
     20 C25          1.2340    -0.0260    -6.0220 ca         1 E5H      -0.081500
     21 C26          0.7100    -0.0240    -4.7470 ca         1 E5H      -0.187500
     22 H1           2.8870     0.0120     1.1670 hn         1 E5H       0.311500
     23 H2           0.5310     0.8850     2.4920 h1         1 E5H       0.055200
     24 H3           0.5310    -0.8840     2.4930 h1         1 E5H       0.055200
     25 H4           2.7710    -0.8840     3.5410 hc         1 E5H       0.053200
     26 H5           2.7710     0.8850     3.5400 hc         1 E5H       0.053200
     27 H6           0.7590    -0.8830     4.9820 h1         1 E5H       0.037200
     28 H7           0.7600     0.8860     4.9810 h1         1 E5H       0.037200
     29 H9           2.4420    -2.0740     6.3020 h1         1 E5H       0.033200
     30 H10          3.5750    -1.4100     5.1120 h1         1 E5H       0.033200
     31 H11          4.7410    -2.0850     7.1920 hc         1 E5H       0.048200
     32 H12          4.8580    -0.3370     6.9250 hc         1 E5H       0.048200
     33 H13          4.2880    -0.7910     9.2720 hc         1 E5H       0.041200
     34 H14          2.8800    -1.7380     8.7600 hc         1 E5H       0.041200
     35 H15          3.3400     1.2190     8.2210 hc         1 E5H       0.048200
     36 H16          2.1830     0.5370     9.3790 hc         1 E5H       0.048200
     37 H17          1.0740     1.1530     7.2510 h1         1 E5H       0.033200
     38 H18          0.9990    -0.5940     7.5370 h1         1 E5H       0.033200
     39 H19          2.5890    -0.8910    -1.3580 h1         1 E5H       0.052700
     40 H20          2.5890     0.8780    -1.3670 h1         1 E5H       0.052700
     41 H21          3.5910    -0.0260    -2.9670 ha         1 E5H       0.140000
     42 H22          4.5370    -0.0380    -5.2410 ha         1 E5H       0.137000
     43 H26          0.5720    -0.0280    -6.8800 ha         1 E5H       0.137000
     44 H27         -0.3640    -0.0190    -4.6040 ha         1 E5H       0.140000
     45 C1           2.3360    -0.0420    -8.6840 ca         1 E5H      -0.123500
     46 C2           2.8690    -0.0490    -9.9580 ca         1 E5H      -0.124500
     47 C3           4.2410    -0.0570   -10.1370 ca         1 E5H      -0.130000
     48 C4           5.0850    -0.0560    -9.0410 ca         1 E5H      -0.124500
     49 C5           4.5630    -0.0430    -7.7640 ca         1 E5H      -0.123500
     50 H8           1.2610    -0.0360    -8.5460 ha         1 E5H       0.131000
     51 H23          2.2120    -0.0500   -10.8190 ha         1 E5H       0.129500
     52 H24          4.6550    -0.0650   -11.1380 ha         1 E5H       0.129000
     53 H25          6.1590    -0.0600    -9.1860 ha         1 E5H       0.129500
     54 H28          5.2260    -0.0420    -6.9070 ha         1 E5H       0.131000
@<TRIPOS>BOND
     1     9    10 1
     2     9     8 1
     3    10    11 1
     4    17    16 ar
     5    17    18 ar
     6     8     7 1
     7    16    15 ar
     8    19    18 1
     9    18    20 ar
    10    11    12 1
    11     7    12 1
    12     7     6 1
    13    15    14 1
    14    15    21 ar
    15    14    13 1
    16     5     4 1
    17     5     6 1
    18    20    21 ar
    19     3     4 1
    20     3     2 1
    21    13     2 1
    22     2     1 2
    23     3    22 1
    24     4    23 1
    25     4    24 1
    26     5    25 1
    27     5    26 1
    28     6    27 1
    29     6    28 1
    30     8    29 1
    31     8    30 1
    32     9    31 1
    33     9    32 1
    34    10    33 1
    35    10    34 1
    36    11    35 1
    37    11    36 1
    38    12    37 1
    39    12    38 1
    40    13    39 1
    41    13    40 1
    42    16    41 1
    43    17    42 1
    44    20    43 1
    45    21    44 1
    46    19    45 ar
    47    45    46 ar
    48    46    47 ar
    49    47    48 ar
    50    48    49 ar
    51    49    19 ar
    52    45    50 1
    53    46    51 1
    54    47    52 1
    55    48    53 1
    56    49    54 1
@<TRIPOS>SUBSTRUCTURE
     1 E5H         1 TEMP              0 ****  ****    0 ROOT
