@<TRIPOS>MOLECULE
molecule
   70    73     1     0     0
SMALL
bcc


@<TRIPOS>ATOM
      1 C4           0.0000     0.0000     0.0000 c3         1 E5J       0.165800
      2 C14          4.8940    -8.8210    -6.7890 ca         1 E5J      -0.347500
      3 C5           2.0000     0.0000     1.3690 c3         1 E5J       0.165800
      4 C6           1.9690    -1.0820    -0.7320 ca         1 E5J       0.123600
      5 C11          3.8360    -2.3370    -1.5740 ca         1 E5J       0.127100
      6 C9           3.3410    -1.2660    -0.8490 ca         1 E5J      -0.228000
      7 C10          1.0950    -1.9760    -1.3360 ca         1 E5J      -0.203000
      8 C12          1.5870    -3.0450    -2.0600 ca         1 E5J      -0.080000
      9 C13          2.9560    -3.2290    -2.1830 ca         1 E5J       0.106600
     10 N1           1.4690     0.0000     0.0000 nh         1 E5J      -0.593000
     11 N2          -0.4200     2.5690     2.7600 n3         1 E5J      -0.727600
     12 C3           1.5490     1.2710     2.0920 c3         1 E5J      -0.078400
     13 N3           3.4550    -4.3150    -2.9190 nu         1 E5J      -0.734300
     14 Cl1          0.2130    -6.6960    -7.1030 cl         1 E5J      -0.095400
     15 P1           4.2530    -8.9560    -8.4820 py         1 E5J       1.075200
     16 O1           5.1780    -2.5190    -1.6900 os         1 E5J      -0.337900
     17 O2           3.7630    -7.6330    -8.9300 o          1 E5J      -0.778300
     18 N4           2.8630    -7.7050    -6.1120 nu         1 E5J      -0.759300
     19 N5           3.1200    -5.9840    -4.5200 nb         1 E5J      -0.849000
     20 N6           1.5320    -4.3240    -4.2470 nb         1 E5J      -0.816000
     21 C1           0.0180     1.3220     2.1190 c3         1 E5J       0.170500
     22 C2          -0.5110     1.2720     0.6830 c3         1 E5J      -0.078400
     23 C15          2.6850    -4.8870    -3.9180 ca         1 E5J       0.971900
     24 C16          4.1280    -8.2130    -5.8030 ca         1 E5J       0.232600
     25 C17          6.0210    -1.5660    -1.0380 c3         1 E5J       0.131700
     26 C18          5.5840    -9.5200    -9.5930 c3         1 E5J      -0.314800
     27 C19          2.8820   -10.1570    -8.5180 c3         1 E5J      -0.314800
     28 C20          6.1410    -9.3280    -6.4810 ca         1 E5J      -0.066000
     29 C21          2.4040    -6.5580    -5.4830 ca         1 E5J       0.781200
     30 C22          4.6230    -8.1130    -4.5090 ca         1 E5J      -0.140000
     31 C23          6.6300    -9.2250    -5.1910 ca         1 E5J      -0.158000
     32 C24          5.8730    -8.6150    -4.2070 ca         1 E5J      -0.080000
     33 C25          1.1830    -5.9860    -5.8510 ca         1 E5J      -0.328200
     34 C26          0.7670    -4.8420    -5.1980 ca         1 E5J       0.533200
     35 H1          -0.3600    -0.8670     0.5400 h1         1 E5J       0.042200
     36 H2          -0.3600    -0.0290    -1.0210 h1         1 E5J       0.042200
     37 H3           1.6260    -0.8670     1.9000 h1         1 E5J       0.042200
     38 H4           3.0820    -0.0300     1.3350 h1         1 E5J       0.042200
     39 H5          -2.1860     3.3970     3.5290 h1         1 E5J       0.031867
     40 H6          -2.2950     1.6880     3.0850 h1         1 E5J       0.031867
     41 H7          -2.2610     2.9290     1.8250 h1         1 E5J       0.031867
     42 H8           0.1000     1.7440     4.6150 h1         1 E5J       0.031867
     43 H9          -0.4040     3.4380     4.6670 h1         1 E5J       0.031867
     44 H10          1.1890     3.0090     4.0280 h1         1 E5J       0.031867
     45 H11          4.0230    -0.5700    -0.3770 ha         1 E5J       0.144000
     46 H12          0.0250    -1.8320    -1.2420 ha         1 E5J       0.139000
     47 H13          0.9030    -3.7400    -2.5320 ha         1 E5J       0.177000
     48 H15          1.9300     2.1390     1.5660 hc         1 E5J       0.058700
     49 H16          1.9270     1.2620     3.1070 hc         1 E5J       0.058700
     50 H17          4.3570    -4.6920    -2.7060 hn         1 E5J       0.474800
     51 H18          2.2690    -8.1970    -6.7490 hn         1 E5J       0.467800
     52 H19         -0.3610     0.4710     2.6720 h1         1 E5J       0.021700
     53 H20         -1.5940     1.2630     0.6980 hc         1 E5J       0.058700
     54 H21         -0.1580     2.1400     0.1380 hc         1 E5J       0.058700
     55 H22          7.0580    -1.8060    -1.2350 h1         1 E5J       0.042033
     56 H23          5.8400    -1.5940     0.0300 h1         1 E5J       0.042033
     57 H24          5.8020    -0.5740    -1.4140 h1         1 E5J       0.042033
     58 H25          5.8760   -10.5280    -9.3230 hc         1 E5J       0.078867
     59 H26          5.2290    -9.5090   -10.6160 hc         1 E5J       0.078867
     60 H27          6.4370    -8.8590    -9.4990 hc         1 E5J       0.078867
     61 H28          2.8650   -10.7130    -7.5890 hc         1 E5J       0.078867
     62 H29          1.9430    -9.6300    -8.6410 hc         1 E5J       0.078867
     63 H30          3.0230   -10.8410    -9.3460 hc         1 E5J       0.078867
     64 H31          6.7360    -9.8060    -7.2490 ha         1 E5J       0.126000
     65 H32          4.0290    -7.6370    -3.7370 ha         1 E5J       0.170000
     66 H33          7.6090    -9.6210    -4.9520 ha         1 E5J       0.131000
     67 H34          6.2590    -8.5370    -3.1980 ha         1 E5J       0.134000
     68 H35         -0.1740    -4.3730    -5.4590 h4         1 E5J       0.041100
     69 C7          -1.8870     2.6510     2.8020 c3         1 E5J       0.150100
     70 C8           0.1540     2.6980     4.1060 c3         1 E5J       0.150100
@<TRIPOS>BOND
     1    30    32 ar
     2    30    24 ar
     3    32    31 ar
     4    14    33 1
     5    18    24 1
     6    18    29 1
     7    31    28 ar
     8    24     2 ar
     9    27    15 1
    10    28     2 ar
    11    29    33 ar
    12    29    19 ar
    13    33    34 ar
    14     2    15 1
    15    17    15 2
    16    22     1 1
    17    22    21 1
    18    19    23 ar
    19    34    20 ar
    20    69    11 1
    21    25    16 1
    22     1    10 1
    23    15    26 1
    24    16     5 1
    25    23    20 ar
    26    23    13 1
    27     5     6 ar
    28     5     9 ar
    29     6     4 ar
    30    13     9 1
    31     9     8 ar
    32    70    11 1
    33     4    10 1
    34     4     7 ar
    35    10     3 1
    36    11    21 1
    37     8     7 ar
    38    21    12 1
    39    12     3 1
    40     1    35 1
    41     1    36 1
    42     3    37 1
    43     3    38 1
    44    69    39 1
    45    69    40 1
    46    69    41 1
    47    70    42 1
    48    70    43 1
    49    70    44 1
    50     6    45 1
    51     7    46 1
    52     8    47 1
    53    12    48 1
    54    12    49 1
    55    13    50 1
    56    18    51 1
    57    21    52 1
    58    22    53 1
    59    22    54 1
    60    25    55 1
    61    25    56 1
    62    25    57 1
    63    26    58 1
    64    26    59 1
    65    26    60 1
    66    27    61 1
    67    27    62 1
    68    27    63 1
    69    28    64 1
    70    30    65 1
    71    31    66 1
    72    32    67 1
    73    34    68 1
@<TRIPOS>SUBSTRUCTURE
     1 E5J         1 TEMP              0 ****  ****    0 ROOT
