@<TRIPOS>MOLECULE
E5J
   70    73     1     0     0
SMALL
bcc


@<TRIPOS>ATOM
      1 C4           0.0000     0.0000     0.0000 c3         1 E5J       0.139300
      2 C14          4.8940    -8.8210    -6.7890 ca         1 E5J      -0.139500
      3 C5           2.0000     0.0000     1.3690 c3         1 E5J       0.139300
      4 C6           1.9690    -1.0820    -0.7320 ca         1 E5J       0.045600
      5 C11          3.8360    -2.3370    -1.5740 ca         1 E5J       0.141100
      6 C9           3.3410    -1.2660    -0.8490 ca         1 E5J      -0.222000
      7 C10          1.0950    -1.9760    -1.3360 ca         1 E5J      -0.187000
      8 C12          1.5870    -3.0450    -2.0600 ca         1 E5J      -0.063000
      9 C13          2.9560    -3.2290    -2.1830 ca         1 E5J      -0.060400
     10 N1           1.4690     0.0000     0.0000 nh         1 E5J      -0.356000
     11 N2          -0.4200     2.5690     2.7600 n3         1 E5J      -0.539600
     12 C3           1.5490     1.2710     2.0920 c3         1 E5J      -0.035400
     13 N3           3.4550    -4.3150    -2.9190 nu         1 E5J      -0.256300
     14 Cl1          0.2130    -6.6960    -7.1030 cl         1 E5J       0.000600
     15 P1           4.2530    -8.9560    -8.4820 py         1 E5J       0.389200
     16 O1           5.1780    -2.5190    -1.6900 os         1 E5J      -0.316900
     17 O2           3.7630    -7.6330    -8.9300 o          1 E5J      -0.591300
     18 N4           2.8630    -7.7050    -6.1120 nu         1 E5J      -0.291300
     19 N5           3.1200    -5.9840    -4.5200 nb         1 E5J      -0.751000
     20 N6           1.5320    -4.3240    -4.2470 nb         1 E5J      -0.730000
     21 C1           0.0180     1.3220     2.1190 c3         1 E5J       0.128500
     22 C2          -0.5110     1.2720     0.6830 c3         1 E5J      -0.035400
     23 C15          2.6850    -4.8870    -3.9180 ca         1 E5J       0.737900
     24 C16          4.1280    -8.2130    -5.8030 ca         1 E5J       0.071600
     25 C17          6.0210    -1.5660    -1.0380 c3         1 E5J       0.248700
     26 C18          5.5840    -9.5200    -9.5930 c3         1 E5J      -0.014300
     27 C19          2.8820   -10.1570    -8.5180 c3         1 E5J      -0.014300
     28 C20          6.1410    -9.3280    -6.4810 ca         1 E5J      -0.044000
     29 C21          2.4040    -6.5580    -5.4830 ca         1 E5J       0.586200
     30 C22          4.6230    -8.1130    -4.5090 ca         1 E5J      -0.135000
     31 C23          6.6300    -9.2250    -5.1910 ca         1 E5J      -0.139000
     32 C24          5.8730    -8.6150    -4.2070 ca         1 E5J      -0.057000
     33 C25          1.1830    -5.9860    -5.8510 ca         1 E5J      -0.412200
     34 C26          0.7670    -4.8420    -5.1980 ca         1 E5J       0.530200
     35 H1          -0.3600    -0.8670     0.5400 h1         1 E5J       0.017950
     36 H2          -0.3600    -0.0290    -1.0210 h1         1 E5J       0.017950
     37 H3           1.6260    -0.8670     1.9000 h1         1 E5J       0.017950
     38 H4           3.0820    -0.0300     1.3350 h1         1 E5J       0.017950
     39 H5          -2.1860     3.3970     3.5290 h1         1 E5J       0.002367
     40 H6          -2.2950     1.6880     3.0850 h1         1 E5J       0.002367
     41 H7          -2.2610     2.9290     1.8250 h1         1 E5J       0.002367
     42 H8           0.1000     1.7440     4.6150 h1         1 E5J       0.002367
     43 H9          -0.4040     3.4380     4.6670 h1         1 E5J       0.002367
     44 H10          1.1890     3.0090     4.0280 h1         1 E5J       0.002367
     45 H11          4.0230    -0.5700    -0.3770 ha         1 E5J       0.132000
     46 H12          0.0250    -1.8320    -1.2420 ha         1 E5J       0.124000
     47 H13          0.9030    -3.7400    -2.5320 ha         1 E5J       0.153000
     48 H15          1.9300     2.1390     1.5660 hc         1 E5J       0.030950
     49 H16          1.9270     1.2620     3.1070 hc         1 E5J       0.030950
     50 H17          4.3570    -4.6920    -2.7060 hn         1 E5J       0.296800
     51 H18          2.2690    -8.1970    -6.7490 hn         1 E5J       0.302800
     52 H19         -0.3610     0.4710     2.6720 h1         1 E5J       0.008700
     53 H20         -1.5940     1.2630     0.6980 hc         1 E5J       0.030950
     54 H21         -0.1580     2.1400     0.1380 hc         1 E5J       0.030950
     55 H22          7.0580    -1.8060    -1.2350 h1         1 E5J      -0.001967
     56 H23          5.8400    -1.5940     0.0300 h1         1 E5J      -0.001967
     57 H24          5.8020    -0.5740    -1.4140 h1         1 E5J      -0.001967
     58 H25          5.8760   -10.5280    -9.3230 hc         1 E5J       0.037867
     59 H26          5.2290    -9.5090   -10.6160 hc         1 E5J       0.037867
     60 H27          6.4370    -8.8590    -9.4990 hc         1 E5J       0.037867
     61 H28          2.8650   -10.7130    -7.5890 hc         1 E5J       0.037867
     62 H29          1.9430    -9.6300    -8.6410 hc         1 E5J       0.037867
     63 H30          3.0230   -10.8410    -9.3460 hc         1 E5J       0.037867
     64 H31          6.7360    -9.8060    -7.2490 ha         1 E5J       0.098000
     65 H32          4.0290    -7.6370    -3.7370 ha         1 E5J       0.145000
     66 H33          7.6090    -9.6210    -4.9520 ha         1 E5J       0.102000
     67 H34          6.2590    -8.5370    -3.1980 ha         1 E5J       0.100000
     68 H35         -0.1740    -4.3730    -5.4590 h4         1 E5J      -0.012900
     69 C7          -1.8870     2.6510     2.8020 c3         1 E5J       0.177600
     70 C8           0.1540     2.6980     4.1060 c3         1 E5J       0.177600
@<TRIPOS>BOND
     1     1    10 1   
     2     1    22 1   
     3     1    35 1   
     4     1    36 1   
     5     2    15 1   
     6     2    24 ar  
     7     2    28 ar  
     8     3    10 1   
     9     3    12 1   
    10     3    37 1   
    11     3    38 1   
    12     4     6 ar  
    13     4     7 ar  
    14     4    10 1   
    15     5     6 ar  
    16     5     9 ar  
    17     5    16 1   
    18     6    45 1   
    19     7     8 ar  
    20     7    46 1   
    21     8     9 ar  
    22     8    47 1   
    23     9    13 1   
    24    11    21 1   
    25    11    69 1   
    26    11    70 1   
    27    12    21 1   
    28    12    48 1   
    29    12    49 1   
    30    13    23 1   
    31    13    50 1   
    32    14    33 1   
    33    15    17 2   
    34    15    26 1   
    35    15    27 1   
    36    16    25 1   
    37    18    24 1   
    38    18    29 1   
    39    18    51 1   
    40    19    23 ar  
    41    19    29 ar  
    42    20    23 ar  
    43    20    34 ar  
    44    21    22 1   
    45    21    52 1   
    46    22    53 1   
    47    22    54 1   
    48    24    30 ar  
    49    25    55 1   
    50    25    56 1   
    51    25    57 1   
    52    26    58 1   
    53    26    59 1   
    54    26    60 1   
    55    27    61 1   
    56    27    62 1   
    57    27    63 1   
    58    28    31 ar  
    59    28    64 1   
    60    29    33 ar  
    61    30    32 ar  
    62    30    65 1   
    63    31    32 ar  
    64    31    66 1   
    65    32    67 1   
    66    33    34 ar  
    67    34    68 1   
    68    39    69 1   
    69    40    69 1   
    70    41    69 1   
    71    42    70 1   
    72    43    70 1   
    73    44    70 1   
@<TRIPOS>SUBSTRUCTURE
     1 E5J         1 TEMP              0 ****  ****    0 ROOT
