@<TRIPOS>MOLECULE
molecule
   67    70     1     0     0
SMALL
bcc


@<TRIPOS>ATOM
      1 O01          0.0000     0.0000     0.0000 o          1 E5K      -0.575100
      2 C02          1.2130     0.0000     0.0000 c          1 E5K       0.662100
      3 N03          1.8870     0.0000     1.1680 n          1 E5K      -0.495800
      4 C04          1.1660    -0.0000     2.4480 c3         1 E5K       0.106500
      5 C05          1.6740     1.1670     3.3000 c3         1 E5K      -0.116900
      6 C06          3.3560    -0.0060     1.1840 c3         1 E5K       0.106500
      7 C07          3.8450     1.1620     2.0460 c3         1 E5K      -0.116900
      8 C08          3.1950     1.0720     3.4350 c3         1 E5K       0.171500
      9 N09          3.6860     2.1710     4.2770 n3         1 E5K      -0.726600
     10 C10          3.2770     1.9850     5.6760 c3         1 E5K       0.158800
     11 C11          3.8730     3.1050     6.5320 c3         1 E5K       0.162800
     12 N12          3.4160     4.4050     6.0200 n3         1 E5K      -0.732600
     13 C13          3.9070     5.5040     6.8620 c3         1 E5K       0.159800
     14 C14          3.2170     6.8070     6.4540 c3         1 E5K      -0.094100
     15 C15          3.8270     4.5900     4.6210 c3         1 E5K       0.162800
     16 C16          3.2300     3.4700     3.7650 c3         1 E5K       0.158800
     17 C17          1.9670    -0.0060    -1.3040 c3         1 E5K       0.066400
     18 O18          1.0380    -0.0110    -2.3910 os         1 E5K      -0.295900
     19 C19          1.5580    -0.0170    -3.6470 ca         1 E5K       0.139100
     20 C20          2.9340    -0.0240    -3.8260 ca         1 E5K      -0.185500
     21 C21          3.4640    -0.0300    -5.1000 ca         1 E5K      -0.086000
     22 C22          2.6170    -0.0290    -6.2060 cp         1 E5K      -0.064000
     23 C23          3.1840    -0.0380    -7.5780 cp         1 E5K      -0.067000
     24 C31          1.2360    -0.0230    -6.0220 ca         1 E5K      -0.086000
     25 C32          0.7110    -0.0230    -4.7470 ca         1 E5K      -0.185500
     26 H1           0.1050     0.1190     2.2660 h1         1 E5K       0.056700
     27 H2           1.3490    -0.9340     2.9670 h1         1 E5K       0.056700
     28 H3           1.2220     1.1200     4.2830 hc         1 E5K       0.059200
     29 H4           1.4130     2.1030     2.8210 hc         1 E5K       0.059200
     30 H5           3.7300     0.1090     0.1740 h1         1 E5K       0.056700
     31 H6           3.7100    -0.9390     1.6040 h1         1 E5K       0.056700
     32 H7           3.5660     2.0980     1.5780 hc         1 E5K       0.059200
     33 H8           4.9220     1.1090     2.1480 hc         1 E5K       0.059200
     34 H9           3.4540     0.1230     3.8890 h1         1 E5K       0.062700
     35 H11          2.1960     2.0170     5.7430 h1         1 E5K       0.043200
     36 H12          3.6380     1.0280     6.0330 h1         1 E5K       0.043200
     37 H13          4.9540     3.0590     6.4830 h1         1 E5K       0.041450
     38 H14          3.5460     2.9880     7.5580 h1         1 E5K       0.041450
     39 H16          3.6880     5.2890     7.9010 h1         1 E5K       0.032700
     40 H17          4.9780     5.6070     6.7330 h1         1 E5K       0.032700
     41 H18          3.7730     7.2740     5.6500 hc         1 E5K       0.039700
     42 H19          3.1800     7.4780     7.3040 hc         1 E5K       0.039700
     43 H20          2.2090     6.5920     6.1190 hc         1 E5K       0.039700
     44 H21          3.4670     5.5470     4.2640 h1         1 E5K       0.041450
     45 H22          4.9070     4.5570     4.5550 h1         1 E5K       0.041450
     46 H23          3.5560     3.5890     2.7390 h1         1 E5K       0.043200
     47 H24          2.1480     3.5170     3.8140 h1         1 E5K       0.043200
     48 H25          2.5890     0.8790    -1.3660 h1         1 E5K       0.053200
     49 H26          2.5900    -0.8900    -1.3580 h1         1 E5K       0.053200
     50 H27          3.5920    -0.0240    -2.9660 ha         1 E5K       0.139500
     51 H28          4.5380    -0.0350    -5.2400 ha         1 E5K       0.135500
     52 H32          0.5750    -0.0250    -6.8800 ha         1 E5K       0.135500
     53 H33         -0.3630    -0.0180    -4.6040 ha         1 E5K       0.139500
     54 C1           2.3360    -0.0370    -8.6840 ca         1 E5K      -0.086000
     55 C2           2.8660    -0.0440    -9.9570 ca         1 E5K      -0.186500
     56 C3           4.2420    -0.0510   -10.1370 ca         1 E5K       0.141100
     57 C4           5.0890    -0.0520    -9.0370 ca         1 E5K      -0.186500
     58 C5           4.5660    -0.0390    -7.7620 ca         1 E5K      -0.086000
     59 O1           4.7620    -0.0580   -11.3920 os         1 E5K      -0.328900
     60 C7           6.1870    -0.0650   -11.5050 c3         1 E5K       0.128700
     61 H10          1.2620    -0.0320    -8.5430 ha         1 E5K       0.134500
     62 H15          2.2080    -0.0440   -10.8170 ha         1 E5K       0.140000
     63 H29          6.1630    -0.0550    -9.1810 ha         1 E5K       0.140000
     64 H30          5.2270    -0.0390    -6.9040 ha         1 E5K       0.134500
     65 H31          6.4660    -0.0700   -12.5520 h1         1 E5K       0.041367
     66 H34          6.5910     0.8190   -11.0280 h1         1 E5K       0.041367
     67 H35          6.5830    -0.9500   -11.0210 h1         1 E5K       0.041367
@<TRIPOS>BOND
     1    21    20 ar
     2    21    22 ar
     3    20    19 ar
     4    23    22 1
     5     1     2 2
     6    22    24 ar
     7    19    18 1
     8    19    25 ar
     9    18    17 1
    10     2    17 1
    11     2     3 1
    12    24    25 ar
    13     6     3 1
    14     6     7 1
    15     3     4 1
    16     7     8 1
    17     4     5 1
    18     8     5 1
    19     8     9 1
    20    16     9 1
    21    16    15 1
    22     9    10 1
    23    10    11 1
    24    15    12 1
    25    12    11 1
    26    12    13 1
    27    13    14 1
    28     4    26 1
    29     4    27 1
    30     5    28 1
    31     5    29 1
    32     6    30 1
    33     6    31 1
    34     7    32 1
    35     7    33 1
    36     8    34 1
    37    10    35 1
    38    10    36 1
    39    11    37 1
    40    11    38 1
    41    13    39 1
    42    13    40 1
    43    14    41 1
    44    14    42 1
    45    14    43 1
    46    15    44 1
    47    15    45 1
    48    16    46 1
    49    16    47 1
    50    17    48 1
    51    17    49 1
    52    20    50 1
    53    21    51 1
    54    24    52 1
    55    25    53 1
    56    23    54 ar
    57    54    55 ar
    58    55    56 ar
    59    56    57 ar
    60    57    58 ar
    61    58    23 ar
    62    56    59 1
    63    59    60 1
    64    54    61 1
    65    55    62 1
    66    57    63 1
    67    58    64 1
    68    60    65 1
    69    60    66 1
    70    60    67 1
@<TRIPOS>SUBSTRUCTURE
     1 E5K         1 TEMP              0 ****  ****    0 ROOT
