@<TRIPOS>MOLECULE
E5K
   67    70     1     0     0
SMALL
bcc


@<TRIPOS>ATOM
      1 O01          0.0000     0.0000     0.0000 o          1 E5K      -0.617100
      2 C02          1.2130     0.0000     0.0000 c          1 E5K       0.580100
      3 N03          1.8870     0.0000     1.1680 n          1 E5K      -0.162800
      4 C04          1.1660    -0.0000     2.4480 c3         1 E5K       0.054500
      5 C05          1.6740     1.1670     3.3000 c3         1 E5K      -0.070900
      6 C06          3.3560    -0.0060     1.1840 c3         1 E5K       0.054500
      7 C07          3.8450     1.1620     2.0460 c3         1 E5K      -0.070900
      8 C08          3.1950     1.0720     3.4350 c3         1 E5K       0.132500
      9 N09          3.6860     2.1710     4.2770 n3         1 E5K      -0.537600
     10 C10          3.2770     1.9850     5.6760 c3         1 E5K       0.141300
     11 C11          3.8730     3.1050     6.5320 c3         1 E5K       0.152300
     12 N12          3.4160     4.4050     6.0200 n3         1 E5K      -0.546600
     13 C13          3.9070     5.5040     6.8620 c3         1 E5K       0.155800
     14 C14          3.2170     6.8070     6.4540 c3         1 E5K      -0.003100
     15 C15          3.8270     4.5900     4.6210 c3         1 E5K       0.152300
     16 C16          3.2300     3.4700     3.7650 c3         1 E5K       0.141300
     17 C17          1.9670    -0.0060    -1.3040 c3         1 E5K       0.129400
     18 O18          1.0380    -0.0110    -2.3910 os         1 E5K      -0.266900
     19 C19          1.5580    -0.0170    -3.6470 ca         1 E5K       0.143100
     20 C20          2.9340    -0.0240    -3.8260 ca         1 E5K      -0.171000
     21 C21          3.4640    -0.0300    -5.1000 ca         1 E5K      -0.061000
     22 C22          2.6170    -0.0290    -6.2060 cp         1 E5K      -0.062000
     23 C23          3.1840    -0.0380    -7.5780 cp         1 E5K      -0.066000
     24 C31          1.2360    -0.0230    -6.0220 ca         1 E5K      -0.061000
     25 C32          0.7110    -0.0230    -4.7470 ca         1 E5K      -0.171000
     26 H1           0.1050     0.1190     2.2660 h1         1 E5K       0.029950
     27 H2           1.3490    -0.9340     2.9670 h1         1 E5K       0.029950
     28 H3           1.2220     1.1200     4.2830 hc         1 E5K       0.034950
     29 H4           1.4130     2.1030     2.8210 hc         1 E5K       0.034950
     30 H5           3.7300     0.1090     0.1740 h1         1 E5K       0.029950
     31 H6           3.7100    -0.9390     1.6040 h1         1 E5K       0.029950
     32 H7           3.5660     2.0980     1.5780 hc         1 E5K       0.034950
     33 H8           4.9220     1.1090     2.1480 hc         1 E5K       0.034950
     34 H9           3.4540     0.1230     3.8890 h1         1 E5K       0.037700
     35 H11          2.1960     2.0170     5.7430 h1         1 E5K       0.019700
     36 H12          3.6380     1.0280     6.0330 h1         1 E5K       0.019700
     37 H13          4.9540     3.0590     6.4830 h1         1 E5K       0.015700
     38 H14          3.5460     2.9880     7.5580 h1         1 E5K       0.015700
     39 H16          3.6880     5.2890     7.9010 h1         1 E5K       0.007200
     40 H17          4.9780     5.6070     6.7330 h1         1 E5K       0.007200
     41 H18          3.7730     7.2740     5.6500 hc         1 E5K       0.007367
     42 H19          3.1800     7.4780     7.3040 hc         1 E5K       0.007367
     43 H20          2.2090     6.5920     6.1190 hc         1 E5K       0.007367
     44 H21          3.4670     5.5470     4.2640 h1         1 E5K       0.015700
     45 H22          4.9070     4.5570     4.5550 h1         1 E5K       0.015700
     46 H23          3.5560     3.5890     2.7390 h1         1 E5K       0.019700
     47 H24          2.1480     3.5170     3.8140 h1         1 E5K       0.019700
     48 H25          2.5890     0.8790    -1.3660 h1         1 E5K       0.017200
     49 H26          2.5900    -0.8900    -1.3580 h1         1 E5K       0.017200
     50 H27          3.5920    -0.0240    -2.9660 ha         1 E5K       0.117000
     51 H28          4.5380    -0.0350    -5.2400 ha         1 E5K       0.110500
     52 H32          0.5750    -0.0250    -6.8800 ha         1 E5K       0.110500
     53 H33         -0.3630    -0.0180    -4.6040 ha         1 E5K       0.117000
     54 C1           2.3360    -0.0370    -8.6840 ca         1 E5K      -0.060500
     55 C2           2.8660    -0.0440    -9.9570 ca         1 E5K      -0.172000
     56 C3           4.2420    -0.0510   -10.1370 ca         1 E5K       0.149100
     57 C4           5.0890    -0.0520    -9.0370 ca         1 E5K      -0.172000
     58 C5           4.5660    -0.0390    -7.7620 ca         1 E5K      -0.060500
     59 O1           4.7620    -0.0580   -11.3920 os         1 E5K      -0.307900
     60 C7           6.1870    -0.0650   -11.5050 c3         1 E5K       0.244700
     61 H10          1.2620    -0.0320    -8.5430 ha         1 E5K       0.110000
     62 H15          2.2080    -0.0440   -10.8170 ha         1 E5K       0.117500
     63 H29          6.1630    -0.0550    -9.1810 ha         1 E5K       0.117500
     64 H30          5.2270    -0.0390    -6.9040 ha         1 E5K       0.110000
     65 H31          6.4660    -0.0700   -12.5520 h1         1 E5K      -0.002967
     66 H34          6.5910     0.8190   -11.0280 h1         1 E5K      -0.002967
     67 H35          6.5830    -0.9500   -11.0210 h1         1 E5K      -0.002967
@<TRIPOS>BOND
     1     1     2 2   
     2     2     3 1   
     3     2    17 1   
     4     3     4 1   
     5     3     6 1   
     6     4     5 1   
     7     4    26 1   
     8     4    27 1   
     9     5     8 1   
    10     5    28 1   
    11     5    29 1   
    12     6     7 1   
    13     6    30 1   
    14     6    31 1   
    15     7     8 1   
    16     7    32 1   
    17     7    33 1   
    18     8     9 1   
    19     8    34 1   
    20     9    10 1   
    21     9    16 1   
    22    10    11 1   
    23    10    35 1   
    24    10    36 1   
    25    11    12 1   
    26    11    37 1   
    27    11    38 1   
    28    12    13 1   
    29    12    15 1   
    30    13    14 1   
    31    13    39 1   
    32    13    40 1   
    33    14    41 1   
    34    14    42 1   
    35    14    43 1   
    36    15    16 1   
    37    15    44 1   
    38    15    45 1   
    39    16    46 1   
    40    16    47 1   
    41    17    18 1   
    42    17    48 1   
    43    17    49 1   
    44    18    19 1   
    45    19    20 ar  
    46    19    25 ar  
    47    20    21 ar  
    48    20    50 1   
    49    21    22 ar  
    50    21    51 1   
    51    22    23 1   
    52    22    24 ar  
    53    23    54 ar  
    54    23    58 ar  
    55    24    25 ar  
    56    24    52 1   
    57    25    53 1   
    58    54    55 ar  
    59    54    61 1   
    60    55    56 ar  
    61    55    62 1   
    62    56    57 ar  
    63    56    59 1   
    64    57    58 ar  
    65    57    63 1   
    66    58    64 1   
    67    59    60 1   
    68    60    65 1   
    69    60    66 1   
    70    60    67 1   
@<TRIPOS>SUBSTRUCTURE
     1 E5K         1 TEMP              0 ****  ****    0 ROOT
