@<TRIPOS>MOLECULE
E5M
   39    41     1     0     0
SMALL
bcc


@<TRIPOS>ATOM
      1 C4           0.0000     0.0000     0.0000 ca         1 E5M      -0.395000
      2 C14          1.1610     0.4090     7.0430 ca         1 E5M       0.119900
      3 C5           1.4000     0.0000     0.0000 ca         1 E5M       0.535200
      4 C6          -0.0260     0.3750    -2.3350 c          1 E5M       0.579500
      5 C11          0.2230    -0.9000     4.7830 ca         1 E5M      -0.158000
      6 C7           1.4190     0.7840    -2.2300 c3         1 E5M       0.056500
      7 C10          2.1100     0.5520    -3.5760 c3         1 E5M       0.010900
      8 C12         -0.4570    -1.0190     5.9820 ca         1 E5M       0.119900
      9 C13          0.0110    -0.3650     7.1130 ca         1 E5M       0.045100
     10 N2           0.0390    -0.0080     2.3330 nb         1 E5M      -0.664000
     11 C3          -0.6700    -0.0060     1.2090 ca         1 E5M       0.459200
     12 N3           2.0400     0.0000     1.1620 nb         1 E5M      -0.632000
     13 C1           1.3740    -0.1250     4.7120 ca         1 E5M       0.040600
     14 C2           1.3640    -0.0040     2.3020 ca         1 E5M       0.683900
     15 N4          -0.6960     0.0100    -1.2180 n          1 E5M       0.024000
     16 N5           2.0970    -0.0030    -1.1950 nh         1 E5M      -0.476300
     17 O1          -0.5840     0.3740    -3.4120 o          1 E5M      -0.650500
     18 C15          1.8410     0.5290     5.8450 ca         1 E5M      -0.158000
     19 O2          -0.6580    -0.4840     8.2930 oh         1 E5M      -0.472100
     20 F2          -1.5770    -1.7720     6.0510 f          1 E5M      -0.116400
     21 H1          -0.1420    -1.4100     3.9000 ha         1 E5M       0.140000
     22 H2           1.4740     1.8350    -1.9720 h1         1 E5M       0.059700
     23 H9           1.8290    -0.4200    -3.9630 hc         1 E5M       0.020033
     24 H10          3.1850     0.5900    -3.4410 hc         1 E5M       0.020033
     25 H11          1.8060     1.3210    -4.2750 hc         1 E5M       0.020033
     26 H13         -1.7520    -0.0090     1.2400 h4         1 E5M      -0.001900
     27 H14          2.7380     1.1330     5.7900 ha         1 E5M       0.140000
     28 H15         -0.3050    -1.2080     8.7830 ho         1 E5M       0.405000
     29 C8          -2.1100    -0.3660    -1.2790 c3         1 E5M       0.060300
     30 C9           2.3440    -1.3760    -1.6550 c3         1 E5M       0.172100
     31 N1           2.0630    -0.0040     3.4990 nu         1 E5M      -0.286300
     32 F1           1.6130     1.0490     8.1430 f          1 E5M      -0.116400
     33 H3          -2.3860    -0.5670    -2.3080 h1         1 E5M       0.023700
     34 H4          -2.7160     0.4460    -0.8950 h1         1 E5M       0.023700
     35 H5          -2.2750    -1.2540    -0.6810 h1         1 E5M       0.023700
     36 H6           3.2250    -1.3920    -2.2850 h1         1 E5M       0.014700
     37 H7           2.5000    -2.0200    -0.7990 h1         1 E5M       0.014700
     38 H8           1.4890    -1.7270    -2.2200 h1         1 E5M       0.014700
     39 H12          3.0610     0.0610     3.4950 hn         1 E5M       0.299800
@<TRIPOS>BOND
     1     1     3 ar  
     2     1    11 ar  
     3     1    15 1   
     4     2     9 ar  
     5     2    18 ar  
     6     2    32 1   
     7     3    12 ar  
     8     3    16 1   
     9     4     6 1   
    10     4    15 1   
    11     4    17 2   
    12     5     8 ar  
    13     5    13 ar  
    14     5    21 1   
    15     6     7 1   
    16     6    16 1   
    17     6    22 1   
    18     7    23 1   
    19     7    24 1   
    20     7    25 1   
    21     8     9 ar  
    22     8    20 1   
    23     9    19 1   
    24    10    11 ar  
    25    10    14 ar  
    26    11    26 1   
    27    12    14 ar  
    28    13    18 ar  
    29    13    31 1   
    30    14    31 1   
    31    15    29 1   
    32    16    30 1   
    33    18    27 1   
    34    19    28 1   
    35    29    33 1   
    36    29    34 1   
    37    29    35 1   
    38    30    36 1   
    39    30    37 1   
    40    30    38 1   
    41    31    39 1   
@<TRIPOS>SUBSTRUCTURE
     1 E5M         1 TEMP              0 ****  ****    0 ROOT
