@<TRIPOS>MOLECULE
molecule
   18    17     1     0     0
SMALL
bcc


@<TRIPOS>ATOM
      1 O42          0.0000     0.0000     0.0000 o          1 E5N      -0.879300
      2 O41          1.9470    -0.0000    -1.0460 o          1 E5N      -0.879300
      3 C4           1.3430     0.0000     0.0000 c          1 E5N       0.890600
      4 C41          2.0960     0.0000     1.3050 c3         1 E5N      -0.185400
      5 C32          3.6000     0.0010     1.0260 c3         1 E5N      -0.042400
      6 C3           5.8430     0.1240     2.0780 c          1 E5N       0.896600
      7 O31          6.2420     0.2050     0.9410 o          1 E5N      -0.874300
      8 O32          6.7140     0.1460     3.0990 o          1 E5N      -0.874300
      9 C22          4.0920    -1.3070     3.0980 c3         1 E5N      -0.067100
     10 C31          4.3650     0.0010     2.3510 c3         1 E5N      -0.176700
     11 H2           1.8340     0.8840     1.8740 hc         1 E5N       0.016700
     12 H3           1.8350    -0.8850     1.8730 hc         1 E5N       0.016700
     13 H4           3.8620     0.8860     0.4580 hc         1 E5N       0.048700
     14 H5           3.8630    -0.8830     0.4570 hc         1 E5N       0.048700
     15 H7           3.9830    -2.1140     2.3840 hc         1 E5N       0.012033
     16 H8           3.1810    -1.2100     3.6760 hc         1 E5N       0.012033
     17 H9           4.9200    -1.5220     3.7620 hc         1 E5N       0.012033
     18 H10          4.0380     0.8370     2.9570 hc         1 E5N       0.026700
@<TRIPOS>BOND
     1     9    10 1
     2     7     6 1
     3    10     6 1
     4    10     5 1
     5     6     8 1
     6     2     3 1
     7     5     4 1
     8     3     4 1
     9     3     1 1
    10     4    11 1
    11     4    12 1
    12     5    13 1
    13     5    14 1
    14     9    15 1
    15     9    16 1
    16     9    17 1
    17    10    18 1
@<TRIPOS>SUBSTRUCTURE
     1 E5N         1 TEMP              0 ****  ****    0 ROOT
