@<TRIPOS>MOLECULE
E5S
   63    66     1     0     0
SMALL
bcc


@<TRIPOS>ATOM
      1 CAO          0.0000     0.0000     0.0000 c3         1 E5S      -0.080500
      2 CAM          1.5310     0.0000     0.0000 c3         1 E5S      -0.166500
      3 CBB          2.0260     0.0000     1.4520 c3         1 E5S      -0.057000
      4 CAN          1.4740    -1.2460     2.1570 c3         1 E5S      -0.166500
      5 CAP         -0.0560    -1.2110     2.0970 c3         1 E5S      -0.080500
      6 NBD         -0.4880    -0.0000     1.3860 n3         1 E5S       0.012000
      7 CAT         -0.0550     1.2110     2.0980 c3         1 E5S      -0.139000
      8 CBF          1.4740     1.2460     2.1570 c3         1 E5S       0.221000
      9 OAC          1.8990     1.2520     3.5210 oh         1 E5S      -0.302000
     10 CAE          1.9690     2.4550     1.4800 c1         1 E5S      -0.194000
     11 CAD          2.3680     3.4280     0.9590 c1         1 E5S      -0.146000
     12 CAX          2.7070     4.3280    -0.5610 c2         1 E5S       0.063000
     13 CAK          2.1080     4.3790    -1.5220 c2         1 E5S      -0.180000
     14 CAL          2.6570     5.3020    -2.7960 c2         1 E5S      -0.077000
     15 CAY          3.6520     5.7620    -2.4120 c2         1 E5S      -0.061000
     16 NBE          4.3580     6.7720    -3.6600 nh         1 E5S      -0.025000
     17 CAS          5.1230     6.3600    -4.2130 c3         1 E5S      -0.028000
     18 CAR          3.4210     7.5210    -5.0120 c2         1 E5S      -0.068000
     19 CBA          3.8370     7.3460    -5.7280 c2         1 E5S       0.205000
     20 OAB          4.5360     8.8500    -5.9060 oh         1 E5S      -0.434000
     21 CBC          5.0330     6.6040    -5.7830 c3         1 E5S      -0.011000
     22 OAV          5.9790     7.5730    -6.1010 os         1 E5S      -0.171000
     23 CAA          7.2920     7.0550    -6.4830 c3         1 E5S       0.000000
     24 NAU          4.4520     5.7970    -1.3580 n2         1 E5S       0.058000
     25 CAZ          4.2430     5.1940    -0.3140 c2         1 E5S      -0.068000
     26 CAQ          5.0340     5.2350     1.0370 c3         1 E5S      -0.006000
     27 CAW          4.5400     6.2140     1.7870 ca         1 E5S      -0.040000
     28 CAI          5.3330     7.1220     2.0510 ca         1 E5S      -0.091500
     29 CAG          5.0480     8.3290     2.8650 ca         1 E5S      -0.111000
     30 CAF          3.6380     8.4710     3.4350 ca         1 E5S      -0.111000
     31 CAH          2.9810     7.3380     2.9910 ca         1 E5S      -0.111000
     32 CAJ          3.2100     6.1670     2.2190 ca         1 E5S      -0.091500
     33 H1          -0.1890     0.5680    -0.9030 h1         1 E5S       0.062250
     34 H2          -0.2450    -0.9870    -0.3730 h1         1 E5S       0.062250
     35 H3           1.9170     0.7090    -0.7220 hc         1 E5S       0.066000
     36 H4           1.6840    -0.8600    -0.6400 hc         1 E5S       0.066000
     37 H5           3.1090    -0.0000     1.4800 hc         1 E5S       0.085000
     38 H6           2.1940    -2.0500     2.0650 hc         1 E5S       0.066000
     39 H7           1.5300    -0.8730     3.1720 hc         1 E5S       0.066000
     40 H8          -0.1850    -1.1100     3.1680 h1         1 E5S       0.062250
     41 H9          -0.6240    -2.0770     1.7780 h1         1 E5S       0.062250
     42 H11         -0.3710     1.3050     3.1300 h1         1 E5S       0.064000
     43 H12         -0.5500     2.1670     1.9740 h1         1 E5S       0.064000
     44 H13          1.1370     1.5170     4.0090 ho         1 E5S       0.197000
     45 H14          1.1300     3.9350    -1.6620 ha         1 E5S       0.131000
     46 H15          1.9680     5.3390    -3.6320 ha         1 E5S       0.151000
     47 H16          5.1460     5.2860    -4.0730 h1         1 E5S      -0.019000
     48 H17          6.0800     6.5740    -3.7530 h1         1 E5S      -0.019000
     49 H18          3.0490     8.4590    -4.6200 h4         1 E5S       0.090000
     50 H19          2.6680     6.7720    -5.2270 h4         1 E5S       0.090000
     51 H20          3.5380     7.0860    -6.7360 h4         1 E5S       0.023000
     52 H21          4.3120     9.1360    -6.7760 ho         1 E5S       0.157000
     53 H22          5.2710     5.6010    -6.1150 h1         1 E5S       0.080000
     54 H23          7.8880     7.7810    -7.0220 h1         1 E5S       0.032333
     55 H24          6.9040     6.2850    -7.1400 h1         1 E5S       0.032333
     56 H25          7.6290     6.3090    -5.7740 h1         1 E5S       0.032333
     57 H26          4.5580     4.2960     1.2950 hc         1 E5S       0.100000
     58 H27          5.9700     5.1300     0.5010 hc         1 E5S       0.100000
     59 H28          6.3930     7.1260     1.8280 ha         1 E5S       0.129000
     60 H29          5.6850     9.0990     3.2830 ha         1 E5S       0.078500
     61 H30          3.4480     9.3980     3.9620 ha         1 E5S       0.141000
     62 H31          1.9830     7.2540     3.4050 ha         1 E5S       0.078500
     63 H32          2.3800     5.5290     1.9410 ha         1 E5S       0.129000
@<TRIPOS>BOND
     1     1     2 1   
     2     1     6 1   
     3     1    33 1   
     4     1    34 1   
     5     2     3 1   
     6     2    35 1   
     7     2    36 1   
     8     3     4 1   
     9     3     8 1   
    10     3    37 1   
    11     4     5 1   
    12     4    38 1   
    13     4    39 1   
    14     5     6 1   
    15     5    40 1   
    16     5    41 1   
    17     6     7 1   
    18     7     8 1   
    19     7    42 1   
    20     7    43 1   
    21     8     9 1   
    22     8    10 1   
    23     9    44 1   
    24    10    11 1   
    25    11    12 1   
    26    12    13 1   
    27    12    25 1   
    28    13    14 1   
    29    13    45 1   
    30    14    15 1   
    31    14    46 1   
    32    15    16 1   
    33    15    24 1   
    34    16    17 1   
    35    16    18 1   
    36    17    21 1   
    37    17    47 1   
    38    17    48 1   
    39    18    49 1   
    40    18    50 1   
    41    19    20 1   
    42    19    21 1   
    43    19    51 1   
    44    20    52 1   
    45    21    22 1   
    46    21    53 1   
    47    22    23 1   
    48    23    54 1   
    49    23    55 1   
    50    23    56 1   
    51    24    25 1   
    52    25    26 1   
    53    26    27 1   
    54    26    57 1   
    55    26    58 1   
    56    27    28 1   
    57    27    32 1   
    58    28    29 1   
    59    28    59 1   
    60    29    30 1   
    61    29    60 1   
    62    30    31 1   
    63    30    61 1   
    64    31    32 1   
    65    31    62 1   
    66    32    63 1   
@<TRIPOS>SUBSTRUCTURE
     1 E5S         1 TEMP              0 ****  ****    0 ROOT
