@<TRIPOS>MOLECULE
molecule
   63    67     1     0     0
SMALL
bcc


@<TRIPOS>ATOM
      1 CAO          0.0000     0.0000     0.0000 c3         1 E5S       0.168800
      2 CAM          1.5310     0.0000     0.0000 c3         1 E5S      -0.136900
      3 CBB          2.0260     0.0000     1.4520 c3         1 E5S      -0.033700
      4 CAN          1.4740    -1.2460     2.1570 c3         1 E5S      -0.136900
      5 CAP         -0.0560    -1.2110     2.0970 c3         1 E5S       0.168800
      6 NBD         -0.4880    -0.0000     1.3860 n3         1 E5S      -0.669600
      7 CAT         -0.0550     1.2110     2.0980 c3         1 E5S       0.119800
      8 CBF          1.4740     1.2460     2.1570 c3         1 E5S       0.207900
      9 OAC          1.8990     1.2520     3.5210 oh         1 E5S      -0.582800
     10 CAE          1.9690     2.4550     1.4800 c1         1 E5S      -0.153100
     11 CAD          2.3680     3.4280     0.9590 cg         1 E5S      -0.146000
     12 CAX          2.7070     4.3280    -0.5610 ca         1 E5S      -0.072300
     13 CAK          2.1080     4.3790    -1.5220 ca         1 E5S      -0.177000
     14 CAL          2.6570     5.3020    -2.7960 ca         1 E5S      -0.180300
     15 CAY          3.6520     5.7620    -2.4120 ca         1 E5S       0.591200
     16 NBE          4.3580     6.7720    -3.6600 nh         1 E5S      -0.686300
     17 CAS          5.1230     6.3600    -4.2130 c3         1 E5S       0.218800
     18 CAR          3.4210     7.5210    -5.0120 c3         1 E5S       0.135800
     19 CBA          3.8370     7.3460    -5.7280 c3         1 E5S       0.277100
     20 OAB          4.5360     8.8500    -5.9060 oh         1 E5S      -0.675800
     21 CBC          5.0330     6.6040    -5.7830 c3         1 E5S       0.071100
     22 OAV          5.9790     7.5730    -6.1010 os         1 E5S      -0.343600
     23 CAA          7.2920     7.0550    -6.4830 c3         1 E5S       0.095700
     24 NAU          4.4520     5.7970    -1.3580 nb         1 E5S      -0.673000
     25 CAZ          4.2430     5.1940    -0.3140 ca         1 E5S       0.476600
     26 CAQ          5.0340     5.2350     1.0370 c3         1 E5S      -0.059400
     27 CAW          4.5400     6.2140     1.7870 ca         1 E5S      -0.039300
     28 CAI          5.3330     7.1220     2.0510 ca         1 E5S      -0.112500
     29 CAG          5.0480     8.3290     2.8650 ca         1 E5S      -0.140500
     30 CAF          3.6380     8.4710     3.4350 ca         1 E5S      -0.138000
     31 CAH          2.9810     7.3380     2.9910 ca         1 E5S      -0.140500
     32 CAJ          3.2100     6.1670     2.2190 ca         1 E5S      -0.112500
     33 H1          -0.1890     0.5680    -0.9030 h1         1 E5S       0.055450
     34 H2          -0.2450    -0.9870    -0.3730 h1         1 E5S       0.055450
     35 H3           1.9170     0.7090    -0.7220 hc         1 E5S       0.051450
     36 H4           1.6840    -0.8600    -0.6400 hc         1 E5S       0.051450
     37 H5           3.1090    -0.0000     1.4800 hc         1 E5S       0.074700
     38 H6           2.1940    -2.0500     2.0650 hc         1 E5S       0.051450
     39 H7           1.5300    -0.8730     3.1720 hc         1 E5S       0.051450
     40 H8          -0.1850    -1.1100     3.1680 h1         1 E5S       0.055450
     41 H9          -0.6240    -2.0770     1.7780 h1         1 E5S       0.055450
     42 H11         -0.3710     1.3050     3.1300 h1         1 E5S       0.056700
     43 H12         -0.5500     2.1670     1.9740 h1         1 E5S       0.056700
     44 H13          1.1370     1.5170     4.0090 ho         1 E5S       0.402000
     45 H14          1.1300     3.9350    -1.6620 ha         1 E5S       0.147000
     46 H15          1.9680     5.3390    -3.6320 ha         1 E5S       0.178000
     47 H16          5.1460     5.2860    -4.0730 h1         1 E5S      -0.022800
     48 H17          6.0800     6.5740    -3.7530 h1         1 E5S      -0.022800
     49 H18          3.0490     8.4590    -4.6200 h1         1 E5S       0.070700
     50 H19          2.6680     6.7720    -5.2270 h1         1 E5S       0.070700
     51 H20          3.5380     7.0860    -6.7360 h1         1 E5S       0.023700
     52 H21          4.3120     9.1360    -6.7760 ho         1 E5S       0.356000
     53 H22          5.2710     5.6010    -6.1150 h1         1 E5S       0.069700
     54 H23          7.8880     7.7810    -7.0220 h1         1 E5S       0.033367
     55 H24          6.9040     6.2850    -7.1400 h1         1 E5S       0.033367
     56 H25          7.6290     6.3090    -5.7740 h1         1 E5S       0.033367
     57 H26          4.5580     4.2960     1.2950 hc         1 E5S       0.094700
     58 H27          5.9700     5.1300     0.5010 hc         1 E5S       0.094700
     59 H28          6.3930     7.1260     1.8280 ha         1 E5S       0.154500
     60 H29          5.6850     9.0990     3.2830 ha         1 E5S       0.109000
     61 H30          3.4480     9.3980     3.9620 ha         1 E5S       0.172000
     62 H31          1.9830     7.2540     3.4050 ha         1 E5S       0.109000
     63 H32          2.3800     5.5290     1.9410 ha         1 E5S       0.154500
@<TRIPOS>BOND
     1    23    22 1
     2    22    21 1
     3    21    19 1
     4    21    17 1
     5    19    20 1
     6    19    18 1
     7    17    16 1
     8    18    16 1
     9    16    15 1
    10    15    14 ar
    11    15    24 ar
    12    14    13 ar
    13    29    30 ar
    14    29    28 ar
    15    30    31 ar
    16    24    25 ar
    17    28    27 ar
    18    13    12 ar
    19    31    32 ar
    20    25    12 ar
    21    25    26 1
    22    27    32 ar
    23    27    26 1
    24    12    11 1
    25    11    10 3
    26    10     8 1
    27     2     3 1
    28     2     1 1
    29     3     8 1
    30     3     4 1
    31     8     9 1
    32     8     7 1
    33     1     6 1
    34     7     6 1
    35     4     5 1
    36     6     5 1
    37     1    33 1
    38     1    34 1
    39     2    35 1
    40     2    36 1
    41     3    37 1
    42     4    38 1
    43     4    39 1
    44     5    40 1
    45     5    41 1
    46     7    42 1
    47     7    43 1
    48     9    44 1
    49    13    45 1
    50    14    46 1
    51    17    47 1
    52    17    48 1
    53    18    49 1
    54    18    50 1
    55    19    51 1
    56    20    52 1
    57    21    53 1
    58    23    54 1
    59    23    55 1
    60    23    56 1
    61    26    57 1
    62    26    58 1
    63    28    59 1
    64    29    60 1
    65    30    61 1
    66    31    62 1
    67    32    63 1
@<TRIPOS>SUBSTRUCTURE
     1 E5S         1 TEMP              0 ****  ****    0 ROOT
