@<TRIPOS>MOLECULE
molecule
   54    59     1     0     0
SMALL
bcc


@<TRIPOS>ATOM
      1 O            0.0000     0.0000     0.0000 o          1 E63      -0.624500
      2 C1           1.2170     0.0000     0.0000 c          1 E63       0.709100
      3 C3           2.0880     0.0000     1.1850 ca         1 E63      -0.239600
      4 C4           1.8420    -0.0000     2.5580 ca         1 E63      -0.013000
      5 C5           2.8860     0.0000     3.4380 ca         1 E63      -0.198000
      6 C6           4.2000    -0.0000     2.9740 ca         1 E63       0.213600
      7 C23          4.4630     0.0020     1.6100 ca         1 E63      -0.143000
      8 C2           3.4130     0.0010     0.7070 ca         1 E63      -0.030200
      9 N2           3.3540     0.0010    -0.6780 na         1 E63      -0.053800
     10 N1           2.0150    -0.0040    -1.0850 ns         1 E63      -0.528200
     11 N3           5.2550     0.0010     3.8820 nu         1 E63      -0.755300
     12 C7           6.4270    -0.6810     3.5850 ca         1 E63       0.928900
     13 N9           6.4820    -1.4180     2.4870 nb         1 E63      -0.779000
     14 C22          7.5830    -2.0840     2.1660 ca         1 E63       0.456200
     15 C15          8.6880    -2.0040     2.9980 ca         1 E63      -0.151000
     16 N8           9.8700    -2.6960     2.6920 nu         1 E63      -0.684000
     17 C16          9.8960    -3.5950     1.6240 ca         1 E63       0.162600
     18 C21         11.0090    -3.6570     0.7940 ca         1 E63      -0.174500
     19 C20         11.0310    -4.5490    -0.2610 ca         1 E63      -0.098000
     20 C19          9.9480    -5.3770    -0.4920 ca         1 E63      -0.152000
     21 C18          8.8390    -5.3160     0.3320 ca         1 E63      -0.098000
     22 C17          8.8120    -4.4330     1.3920 ca         1 E63      -0.174500
     23 C8           8.5960    -1.2150     4.1540 ca         1 E63       0.720200
     24 N4           7.4620    -0.5730     4.4050 nb         1 E63      -0.807000
     25 N5           9.6780    -1.0990     5.0170 nu         1 E63      -0.752300
     26 C9           9.5780    -0.3050     6.1560 cc         1 E63       0.153300
     27 C11          8.4870     0.4120     6.5460 cd         1 E63      -0.352300
     28 C10          8.8080     1.0650     7.7390 cd         1 E63       0.383600
     29 N7          10.0390     0.7610     8.0590 nc         1 E63      -0.502800
     30 N6          10.5490    -0.1060     7.0850 na         1 E63      -0.075600
     31 C12          7.8920     1.9700     8.5210 cx         1 E63      -0.152000
     32 C14          6.9280     1.3120     9.5130 cx         1 E63      -0.129900
     33 C13          6.3950     1.9040     8.2050 cx         1 E63      -0.129900
     34 H4           0.8230    -0.0000     2.9250 ha         1 E63       0.150000
     35 H5           2.6920    -0.0010     4.5040 ha         1 E63       0.139000
     36 H21          5.4860     0.0020     1.2530 ha         1 E63       0.165000
     37 H3           3.8070     0.8200    -1.0310 hn         1 E63       0.224700
     38 H2           1.7000    -0.0100    -2.0350 hn         1 E63       0.373500
     39 H6           5.1780     0.5130     4.7390 hn         1 E63       0.469800
     40 H20          7.6170    -2.6850     1.2650 h4         1 E63       0.056100
     41 H14         10.6980    -2.5360     3.2310 hn         1 E63       0.437800
     42 H19         11.8570    -3.0090     0.9750 ha         1 E63       0.139000
     43 H18         11.8980    -4.5990    -0.9080 ha         1 E63       0.135000
     44 H17          9.9670    -6.0730    -1.3220 ha         1 E63       0.134000
     45 H16          7.9930    -5.9680     0.1490 ha         1 E63       0.135000
     46 H15          7.9420    -4.3860     2.0370 ha         1 E63       0.139000
     47 H7          10.5250    -1.5970     4.8260 hn         1 E63       0.449800
     48 H8           7.5390     0.4650     6.0240 ha         1 E63       0.197000
     49 H1          11.4680    -0.5020     7.0710 hn         1 E63       0.321700
     50 H9           8.2500     2.9480     8.8190 hc         1 E63       0.094700
     51 H12          6.7140     1.8840    10.4070 hc         1 E63       0.076700
     52 H13          6.9670     0.2300     9.5540 hc         1 E63       0.076700
     53 H11          5.8560     2.8380     8.3010 hc         1 E63       0.076700
     54 H10          6.1080     1.1840     7.4490 hc         1 E63       0.076700
@<TRIPOS>BOND
     1    33    31 1
     2    33    32 1
     3    31    28 1
     4    31    32 1
     5    29    28 2
     6    29    30 1
     7    28    27 1
     8    30    26 1
     9    27    26 2
    10    26    25 1
    11     1     2 2
    12    25    23 1
    13    21    22 ar
    14    21    20 ar
    15    22    17 ar
    16     4     3 ar
    17     4     5 ar
    18     2     3 1
    19     2    10 1
    20    20    19 ar
    21    17    16 1
    22    17    18 ar
    23     3     8 ar
    24    23    24 ar
    25    23    15 ar
    26     5     6 ar
    27    19    18 ar
    28    16    15 1
    29    24    12 ar
    30    10     9 1
    31    15    14 ar
    32     8     9 1
    33     8     7 ar
    34     6     7 ar
    35     6    11 1
    36    12    11 1
    37    12    13 ar
    38    14    13 ar
    39     4    34 1
    40     5    35 1
    41     7    36 1
    42     9    37 1
    43    10    38 1
    44    11    39 1
    45    14    40 1
    46    16    41 1
    47    18    42 1
    48    19    43 1
    49    20    44 1
    50    21    45 1
    51    22    46 1
    52    25    47 1
    53    27    48 1
    54    30    49 1
    55    31    50 1
    56    32    51 1
    57    32    52 1
    58    33    53 1
    59    33    54 1
@<TRIPOS>SUBSTRUCTURE
     1 E63         1 TEMP              0 ****  ****    0 ROOT
