@<TRIPOS>MOLECULE
molecule
   55    54     1     0     0
SMALL
bcc


@<TRIPOS>ATOM
      1 C1           0.0000     0.0000     0.0000 c          1 E64       0.884600
      2 O1           1.2480     0.0000     0.0000 o          1 E64      -0.612300
      3 O2          -0.6690     0.0000     1.0610 o          1 E64      -0.612300
      4 C2          -0.7650    -0.1160    -1.3410 c3         1 E64      -0.113400
      5 C3          -0.1750     0.8270    -2.5030 c3         1 E64       0.070100
      6 O3          -0.4630     2.2010    -2.2660 oh         1 E64      -0.601800
      7 C4          -0.8180     0.4590    -3.8210 c          1 E64       0.653100
      8 O4          -0.1920    -0.1350    -4.6930 o          1 E64      -0.609100
      9 N1          -2.0930     0.8390    -3.9560 ns         1 E64      -0.548900
     10 C6          -2.8610     0.6410    -5.1860 c3         1 E64       0.042700
     11 C7          -4.3240     0.2870    -4.8950 c3         1 E64      -0.084400
     12 C8          -4.7360    -1.1750    -4.8350 c3         1 E64      -0.071700
     13 C9          -6.2600    -1.2410    -4.6960 c3         1 E64      -0.089100
     14 C10         -4.2410    -1.9010    -6.0920 c3         1 E64      -0.089100
     15 C11         -2.8370     1.9540    -5.9610 c          1 E64       0.655100
     16 O5          -3.2780     2.9970    -5.4470 o          1 E64      -0.634100
     17 N2          -2.2840     1.8480    -7.1760 ns         1 E64      -0.568900
     18 C12         -2.0870     2.8710    -8.2190 c3         1 E64       0.121000
     19 C13         -2.2260     4.3250    -7.7630 c3         1 E64      -0.100400
     20 C14         -3.3780     5.0520    -8.5020 c3         1 E64      -0.087400
     21 C15         -3.1030     6.5330    -8.7790 c3         1 E64       0.030300
     22 N3          -4.3060     7.3880    -8.7510 nu         1 E64      -0.367100
     23 C16         -4.3480     8.6560    -9.1610 c2         1 E64       0.222700
     24 N4          -3.2430     9.2380    -9.6270 nz         1 E64      -0.711600
     25 N5          -5.4690     9.3690    -9.0650 nv         1 E64      -0.486200
     26 H21         -1.8010     0.1510    -1.1720 hc         1 E64       0.079700
     27 H22         -0.7220    -1.1450    -1.6750 hc         1 E64       0.079700
     28 H3           0.8970     0.6880    -2.5720 h1         1 E64       0.096700
     29 HO3          0.3400     2.6960    -2.2740 ho         1 E64       0.422000
     30 HN1         -2.5440     1.2810    -3.1790 hn         1 E64       0.344500
     31 H6          -2.4060    -0.1430    -5.7800 h1         1 E64       0.089700
     32 H71         -4.5820     0.7350    -3.9430 hc         1 E64       0.052200
     33 H72         -4.9300     0.7620    -5.6580 hc         1 E64       0.052200
     34 H8          -4.2830    -1.6320    -3.9640 hc         1 E64       0.059700
     35 H91         -6.5680    -0.6640    -3.8330 hc         1 E64       0.038200
     36 H92         -6.7220    -0.8340    -5.5870 hc         1 E64       0.038200
     37 H93         -6.5660    -2.2720    -4.5690 hc         1 E64       0.038200
     38 H101        -4.7650    -2.8440    -6.1940 hc         1 E64       0.038200
     39 H102        -4.4320    -1.2860    -6.9630 hc         1 E64       0.038200
     40 H103        -3.1780    -2.0870    -6.0070 hc         1 E64       0.038200
     41 HN2         -1.9540     0.9330    -7.4120 hn         1 E64       0.330500
     42 H121        -2.8100     2.6940    -9.0060 h1         1 E64       0.043700
     43 H122        -1.0950     2.7410    -8.6350 h1         1 E64       0.043700
     44 H131        -2.4220     4.3440    -6.6980 hc         1 E64       0.080200
     45 H132        -1.2970     4.8470    -7.9600 hc         1 E64       0.080200
     46 H141        -4.2760     4.9740    -7.9010 hc         1 E64       0.066700
     47 H142        -3.5510     4.5510    -9.4470 hc         1 E64       0.066700
     48 H151        -2.6430     6.6200    -9.7560 h1         1 E64       0.053200
     49 H152        -2.4050     6.8980    -8.0350 h1         1 E64       0.053200
     50 HN3         -5.1520     6.9870    -8.3990 hn         1 E64       0.333700
     51 HN41        -2.5270     9.2030    -8.9290 hn         1 E64       0.463133
     52 HN42        -3.4390    10.1920    -9.8560 hn         1 E64       0.463133
     53 HN51        -5.4800    10.3260    -9.3600 hn         1 E64       0.328200
     54 HN52        -6.2950     8.9540    -8.6820 hn         1 E64       0.328200
     55 H43         -2.9350     8.7580   -10.4500 hn         1 E64       0.463133
@<TRIPOS>BOND
     1     1     2 1
     2     1     3 1
     3     1     4 1
     4     4     5 1
     5     4    26 1
     6     4    27 1
     7     5     6 1
     8     5     7 1
     9     5    28 1
    10     6    29 1
    11     7     8 2
    12     7     9 1
    13     9    10 1
    14     9    30 1
    15    10    11 1
    16    10    15 1
    17    10    31 1
    18    11    12 1
    19    11    32 1
    20    11    33 1
    21    12    13 1
    22    12    14 1
    23    12    34 1
    24    13    35 1
    25    13    36 1
    26    13    37 1
    27    14    38 1
    28    14    39 1
    29    14    40 1
    30    15    16 2
    31    15    17 1
    32    17    18 1
    33    17    41 1
    34    18    19 1
    35    18    42 1
    36    18    43 1
    37    19    20 1
    38    19    44 1
    39    19    45 1
    40    20    21 1
    41    20    46 1
    42    20    47 1
    43    21    22 1
    44    21    48 1
    45    21    49 1
    46    22    23 2
    47    22    50 1
    48    23    24 1
    49    23    25 1
    50    24    51 1
    51    24    52 1
    52    25    53 1
    53    25    54 1
    54    55    24 1
@<TRIPOS>SUBSTRUCTURE
     1 E64         1 TEMP              0 ****  ****    0 ROOT
