@<TRIPOS>MOLECULE
E64
   54    53     1     0     0
SMALL
bcc


@<TRIPOS>ATOM
      1 C1         -1.8850   -4.1630   -4.2720 c         1 E64      0.904600
      2 O1         -1.6300   -4.1230   -5.5140 o         1 E64     -0.873800
      3 O2         -2.5690   -5.1330   -3.7940 o         1 E64     -0.873800
      4 C2         -1.3950   -3.0710   -3.3440 c3        1 E64     -0.213400
      5 C3         -2.5320   -2.2200   -2.8010 c3        1 E64      0.107100
      6 O3         -3.4160   -2.9700   -1.9970 oh        1 E64     -0.583800
      7 C4         -3.3410   -1.4420   -3.8540 c         1 E64      0.623100
      8 O4         -4.3830   -0.8400   -3.5140 o         1 E64     -0.628100
      9 N1         -2.8750   -1.3580   -5.1480 n         1 E64     -0.568900
     10 C6         -3.5020   -0.5050   -6.1270 c3        1 E64      0.041700
     11 C7         -2.5310   -0.0180   -7.2120 c3        1 E64     -0.078400
     12 C8         -1.4860    0.9550   -6.6880 c3        1 E64     -0.068700
     13 C9         -0.3620    1.0840   -7.6980 c3        1 E64     -0.092100
     14 C10        -2.0870    2.3160   -6.4050 c3        1 E64     -0.092100
     15 C11        -4.6790   -1.2320   -6.8330 c         1 E64      0.630100
     16 O5         -4.6040   -1.5850   -8.0270 o         1 E64     -0.624100
     17 N2         -5.8180   -1.4360   -6.0820 n         1 E64     -0.560900
     18 C12        -6.8880   -2.2790   -6.5360 c3        1 E64      0.087000
     19 C13        -6.8110   -3.7360   -6.0640 c3        1 E64     -0.105400
     20 C14        -5.6980   -4.4930   -6.7600 c3        1 E64     -0.095400
     21 C15        -5.0970   -5.5560   -5.8390 c3        1 E64      0.006300
     22 N3         -3.7500   -5.9270   -6.2340 nh        1 E64     -0.353100
     23 C16        -2.9800   -6.7420   -5.4100 cz        1 E64      0.535300
     24 N4         -3.5910   -7.6140   -4.5000 nh        1 E64     -0.458200
     25 N5         -1.6360   -6.9360   -5.7390 nh        1 E64     -0.458200
     26 H21        -0.6450   -2.4300   -3.8710 hc        1 E64      0.071200
     27 H22        -0.8860   -3.5620   -2.4720 hc        1 E64      0.071200
     28 H3         -2.1180   -1.4330   -2.1010 h1        1 E64      0.091700
     29 HO3        -3.5940   -3.8080   -2.4530 ho        1 E64      0.428000
     30 HN1        -2.1650   -1.9800   -5.4730 hn        1 E64      0.352500
     31 H6         -3.9290    0.3960   -5.5870 h1        1 E64      0.089700
     32 H71        -2.0270   -0.9020   -7.6860 hc        1 E64      0.066200
     33 H72        -3.1410    0.4780   -8.0130 hc        1 E64      0.066200
     34 H8         -1.0520    0.5510   -5.7300 hc        1 E64      0.051700
     35 H91         0.1310    0.0960   -7.8620 hc        1 E64      0.034700
     36 H92         0.4050    1.8070   -7.3300 hc        1 E64      0.034700
     37 H93        -0.7550    1.4510   -8.6760 hc        1 E64      0.034700
     38 H101       -2.5450    2.7440   -7.3290 hc        1 E64      0.034700
     39 H102       -1.2950    3.0180   -6.0470 hc        1 E64      0.034700
     40 H103       -2.8750    2.2460   -5.6180 hc        1 E64      0.034700
     41 HN2        -5.7870   -1.2210   -5.1070 hn        1 E64      0.338500
     42 H121       -6.9080   -2.2620   -7.6630 h1        1 E64      0.062700
     43 H122       -7.8540   -1.8390   -6.1540 h1        1 E64      0.062700
     44 H131       -6.6760   -3.7610   -4.9500 hc        1 E64      0.048200
     45 H132       -7.7960   -4.2220   -6.2870 hc        1 E64      0.048200
     46 H141       -6.0950   -4.9850   -7.6860 hc        1 E64      0.069700
     47 H142       -4.9040   -3.7710   -7.1000 hc        1 E64      0.069700
     48 H151       -5.7450   -6.4780   -5.8740 h1        1 E64      0.056700
     49 H152       -5.0800   -5.1670   -4.7770 h1        1 E64      0.056700
     50 HN3        -3.2300   -5.1910   -6.6930 hn        1 E64      0.325700
     51 HN41       -4.4680   -7.3090   -4.1320 hn        1 E64      0.288700
     52 HN42       -2.9870   -8.0100   -3.8110 hn        1 E64      0.288700
     53 HN51       -1.1880   -6.1400   -6.1660 hn        1 E64      0.288700
     54 HN52       -1.0790   -7.3910   -5.0500 hn        1 E64      0.288700
@<TRIPOS>BOND
     1    1    2 1   
     2    1    3 1   
     3    1    4 1   
     4    4    5 1   
     5    4   26 1   
     6    4   27 1   
     7    5    6 1   
     8    5    7 1   
     9    5   28 1   
    10    6   29 1   
    11    7    8 2   
    12    7    9 1   
    13    9   10 1   
    14    9   30 1   
    15   10   11 1   
    16   10   15 1   
    17   10   31 1   
    18   11   12 1   
    19   11   32 1   
    20   11   33 1   
    21   12   13 1   
    22   12   14 1   
    23   12   34 1   
    24   13   35 1   
    25   13   36 1   
    26   13   37 1   
    27   14   38 1   
    28   14   39 1   
    29   14   40 1   
    30   15   16 2   
    31   15   17 1   
    32   17   18 1   
    33   17   41 1   
    34   18   19 1   
    35   18   42 1   
    36   18   43 1   
    37   19   20 1   
    38   19   44 1   
    39   19   45 1   
    40   20   21 1   
    41   20   46 1   
    42   20   47 1   
    43   21   22 1   
    44   21   48 1   
    45   21   49 1   
    46   22   23 2   
    47   22   50 1   
    48   23   24 1   
    49   23   25 1   
    50   24   51 1   
    51   24   52 1   
    52   25   53 1   
    53   25   54 1   
@<TRIPOS>SUBSTRUCTURE
     1 E64         1 TEMP              0 ****  ****    0 ROOT
