@<TRIPOS>MOLECULE
molecule
   38    39     1     0     0
SMALL
bcc


@<TRIPOS>ATOM
      1 N1           0.0000     0.0000     0.0000 nb         1 E65      -0.752500
      2 C2           1.3260     0.0000     0.0000 ca         1 E65       0.775300
      3 N3           2.0200     0.0000     1.1290 nb         1 E65      -0.752500
      4 C4           1.4050    -0.0000     2.3000 ca         1 E65       0.483600
      5 C5           0.0190     0.0000     2.3370 ca         1 E65      -0.381600
      6 C6          -0.6760    -0.0000     1.1380 ca         1 E65       0.483600
      7 S7           2.1850    -0.0010    -1.5380 ss         1 E65      -0.160400
      8 C8           3.8950    -0.0000    -0.9430 c3         1 E65      -0.131300
      9 C9           4.8360    -0.0010    -2.1200 c          1 E65       0.567700
     10 O10          4.3940    -0.0020    -3.2490 o          1 E65      -0.461100
     11 C11          2.2020     0.0000     3.5800 c3         1 E65      -0.145900
     12 C12         -2.1830    -0.0010     1.1290 c3         1 E65      -0.145900
     13 C13          6.2910    -0.0010    -1.8980 ca         1 E65      -0.066600
     14 C14          7.1670    -0.0020    -2.9880 ca         1 E65      -0.089500
     15 C15          8.5300    -0.0010    -2.7710 ca         1 E65      -0.038000
     16 C16          9.0300    -0.0010    -1.4810 ca         1 E65      -0.327500
     17 C17          8.1680     0.0000    -0.3980 ca         1 E65      -0.038000
     18 C18          6.8030     0.0060    -0.5970 ca         1 E65      -0.089500
     19 S19         10.7710    -0.0000    -1.2160 sy         1 E65       1.226200
     20 O20         10.9800    -0.5440     0.0810 o          1 E65      -0.513800
     21 O21         11.3560    -0.5450    -2.3910 o          1 E65      -0.513800
     22 N22         11.2560     1.5810    -1.1420 nz         1 E65      -0.807500
     23 H5          -0.5090     0.0000     3.2830 ha         1 E65       0.154000
     24 H8           4.0680     0.8850    -0.3430 h1         1 E65       0.100700
     25 H8A          4.0680    -0.8840    -0.3410 h1         1 E65       0.100700
     26 H11          2.0130    -0.9180     4.1230 hc         1 E65       0.060533
     27 H11A         3.2580     0.0720     3.3480 hc         1 E65       0.060533
     28 H11B         1.9080     0.8470     4.1880 hc         1 E65       0.060533
     29 H12         -2.5470     0.8840     1.6380 hc         1 E65       0.060533
     30 H12A        -2.5470    -0.8850     1.6380 hc         1 E65       0.060533
     31 H12B        -2.5380    -0.0010     0.1060 hc         1 E65       0.060533
     32 H14          6.7780    -0.0020    -3.9990 ha         1 E65       0.181000
     33 H15          9.2100    -0.0020    -3.6140 ha         1 E65       0.160000
     34 H17          8.5660     0.0030     0.6100 ha         1 E65       0.160000
     35 H18          6.1300     0.0060     0.2520 ha         1 E65       0.181000
     36 HN22        12.2450     1.6200    -0.9920 hn         1 E65       0.493133
     37 HN2A        10.7860     2.0400    -0.3870 hn         1 E65       0.493133
     38 H223        11.0310     2.0400    -2.0030 hn         1 E65       0.493133
@<TRIPOS>BOND
     1     1     2 ar
     2     1     6 ar
     3     7     2 1
     4     2     3 ar
     5     3     4 ar
     6     5     4 ar
     7     4    11 1
     8     6     5 ar
     9     5    23 1
    10    12     6 1
    11     7     8 1
    12     8     9 1
    13     8    24 1
    14     8    25 1
    15    10     9 2
    16     9    13 1
    17    11    26 1
    18    11    27 1
    19    11    28 1
    20    12    29 1
    21    12    30 1
    22    12    31 1
    23    13    14 ar
    24    13    18 ar
    25    14    15 ar
    26    14    32 1
    27    15    16 ar
    28    15    33 1
    29    17    16 ar
    30    16    19 1
    31    18    17 ar
    32    17    34 1
    33    18    35 1
    34    22    19 1
    35    20    19 2
    36    19    21 2
    37    22    36 1
    38    22    37 1
    39    38    22 1
@<TRIPOS>SUBSTRUCTURE
     1 E65         1 TEMP              0 ****  ****    0 ROOT
