@<TRIPOS>MOLECULE
molecule
   88    91     1     0     0
SMALL
bcc


@<TRIPOS>ATOM
      1 N1           0.0000     0.0000     0.0000 nb         1 E67      -0.877000
      2 C2           1.3300     0.0000     0.0000 ca         1 E67       0.991900
      3 N3           2.0430     0.0000     1.1100 nb         1 E67      -0.857000
      4 C4           1.4370     0.0000     2.3070 ca         1 E67       0.532600
      5 C5           0.0210    -0.0000     2.3540 ca         1 E67      -0.362600
      6 C6          -0.6910    -0.0000     1.1310 ca         1 E67       0.785200
      7 CAA          1.4950    -0.0000     4.7070 ca         1 E67       0.165100
      8 CAB          0.0940    -0.0000     4.7450 ca         1 E67       0.085100
      9 CAC         -0.6360    -0.0010     3.5920 ca         1 E67      -0.139000
     10 CAF          2.1650     0.0000     3.5030 ca         1 E67      -0.287300
     11 OAK          2.1990    -0.0010     5.8680 os         1 E67      -0.313900
     12 OAL         -0.5460    -0.0020     5.9460 os         1 E67      -0.323900
     13 CAM         -1.9750    -0.0030     5.9200 c3         1 E67       0.127700
     14 NAN         -2.0700    -0.0010     1.1150 nu         1 E67      -0.890900
     15 CAO         -2.7890    -0.0010    -0.1610 c3         1 E67       0.237500
     16 CAP         -4.1810     0.6060     0.0350 c3         1 E67      -0.092900
     17 CAQ         -4.9490     0.5470    -1.2880 c3         1 E67       0.164300
     18 NAR         -5.0620    -0.8490    -1.7290 n3         1 E67      -0.728600
     19 CAS         -3.7380    -1.4380    -1.9690 c3         1 E67       0.164300
     20 CAT         -2.9320    -1.4390    -0.6680 c3         1 E67      -0.092900
     21 NAU          1.9940    -0.0000    -1.2140 nu         1 E67      -0.894900
     22 CAV          3.4580     0.0000    -1.2490 c3         1 E67       0.247800
     23 CAW          3.9340    -0.0000    -2.7030 c3         1 E67      -0.104400
     24 CAX          5.4630     0.0000    -2.7400 c3         1 E67       0.167800
     25 NAY          5.9200    -0.0010    -4.1360 n3         1 E67      -0.731600
     26 CAZ          7.3670     0.2370    -4.2160 c3         1 E67       0.150600
     27 CBA          5.5550    -1.2540    -4.8090 c3         1 E67       0.150600
     28 CBB          3.6250    -0.0010     5.7630 c3         1 E67       0.141400
     29 CBC          4.2390    -0.0020     7.1630 c3         1 E67      -0.081400
     30 CBD          5.7650    -0.0010     7.0500 c3         1 E67      -0.074400
     31 CBE          6.3810    -0.0020     8.4510 c3         1 E67      -0.110400
     32 CBF          7.9060    -0.0020     8.3380 c3         1 E67       0.090800
     33 NBG          8.4970    -0.0020     9.6840 nz         1 E67      -0.810600
     34 CBH         -5.9100    -0.9570    -2.9230 c3         1 E67       0.210100
     35 CBI         -6.2040    -2.4100    -3.2010 ca         1 E67      -0.084300
     36 CBJ         -7.3150    -3.0100    -2.6390 ca         1 E67      -0.117000
     37 CBK         -7.5830    -4.3430    -2.8940 ca         1 E67      -0.128500
     38 CBL         -6.7400    -5.0730    -3.7100 ca         1 E67      -0.125000
     39 CBM         -5.6290    -4.4730    -4.2720 ca         1 E67      -0.128500
     40 CBN         -5.3630    -3.1390    -4.0220 ca         1 E67      -0.117000
     41 HAC         -1.7190    -0.0010     3.6330 ha         1 E67       0.137000
     42 HAF          3.2480     0.0000     3.4820 ha         1 E67       0.149000
     43 HAM         -2.3550    -0.0020     6.9350 h1         1 E67       0.041700
     44 HAMA        -2.3260    -0.8880     5.4040 h1         1 E67       0.041700
     45 HAMB        -2.3270     0.8810     5.4020 h1         1 E67       0.041700
     46 HNAN        -2.5800     0.0280     1.9760 hn         1 E67       0.447800
     47 HAO         -2.2410     0.5850    -0.8900 h1         1 E67       0.081700
     48 HAP         -4.0840     1.6380     0.3490 hc         1 E67       0.055450
     49 HAPA        -4.7170     0.0420     0.7890 hc         1 E67       0.055450
     50 HAQ         -4.4180     1.1190    -2.0380 h1         1 E67       0.040700
     51 HAQA        -5.9410     0.9600    -1.1470 h1         1 E67       0.040700
     52 HAS         -3.2150    -0.8520    -2.7150 h1         1 E67       0.040700
     53 HASA        -3.8560    -2.4560    -2.3200 h1         1 E67       0.040700
     54 HAT         -3.4490    -2.0330     0.0760 hc         1 E67       0.055450
     55 HATA        -1.9500    -1.8560    -0.8520 hc         1 E67       0.055450
     56 HNAU         1.4730     0.0150    -2.0680 hn         1 E67       0.456800
     57 HAV          3.8300     0.8850    -0.7480 h1         1 E67       0.048200
     58 HAVA         3.8310    -0.8840    -0.7470 h1         1 E67       0.048200
     59 HAW          3.5610     0.8840    -3.2060 hc         1 E67       0.057200
     60 HAWA         3.5610    -0.8850    -3.2050 hc         1 E67       0.057200
     61 HAX          5.8360     0.8850    -2.2390 h1         1 E67       0.032700
     62 HAXA         5.8370    -0.8840    -2.2370 h1         1 E67       0.032700
     63 HAZ          7.6720     0.2630    -5.2560 h1         1 E67       0.033033
     64 HAZA         7.6030     1.1850    -3.7470 h1         1 E67       0.033033
     65 HAZB         7.8940    -0.5600    -3.7050 h1         1 E67       0.033033
     66 HBA          4.5650    -1.1590    -5.2380 h1         1 E67       0.033033
     67 HBAA         5.5600    -2.0650    -4.0900 h1         1 E67       0.033033
     68 HBAB         6.2710    -1.4640    -5.5950 h1         1 E67       0.033033
     69 HBB          3.9470     0.8830     5.2280 h1         1 E67       0.042700
     70 HBBA         3.9470    -0.8860     5.2270 h1         1 E67       0.042700
     71 HBC          3.9170    -0.8870     7.6980 hc         1 E67       0.064700
     72 HBCA         3.9160     0.8820     7.7000 hc         1 E67       0.064700
     73 HBD          6.0870     0.8840     6.5150 hc         1 E67       0.059200
     74 HBDA         6.0880    -0.8850     6.5140 hc         1 E67       0.059200
     75 HBE          6.0590     0.8830     8.9870 hc         1 E67       0.068200
     76 HBEA         6.0580    -0.8860     8.9870 hc         1 E67       0.068200
     77 HBF          8.2290     0.8830     7.8020 hx         1 E67       0.112700
     78 HBFA         8.2280    -0.8860     7.8020 hx         1 E67       0.112700
     79 HNBG         9.4950     0.0110     9.6100 hn         1 E67       0.457467
     80 HNBA         8.2090    -0.8250    10.1740 hn         1 E67       0.457467
     81 HBH         -6.8400    -0.4270    -2.7540 h1         1 E67       0.041200
     82 HBHA        -5.3960    -0.5240    -3.7720 h1         1 E67       0.041200
     83 HBJ         -7.9750    -2.4370    -1.9990 ha         1 E67       0.130500
     84 HBK         -8.4530    -4.8140    -2.4540 ha         1 E67       0.130500
     85 HBL         -6.9490    -6.1170    -3.9080 ha         1 E67       0.130000
     86 HBM         -4.9700    -5.0450    -4.9130 ha         1 E67       0.130500
     87 HBN         -4.4930    -2.6680    -4.4620 ha         1 E67       0.130500
     88 HBG3         8.1900     0.8090    10.1830 hn         1 E67       0.457467
@<TRIPOS>BOND
     1     6     1 ar
     2     1     2 ar
     3     3     2 ar
     4     2    21 1
     5     4     3 ar
     6     5     4 ar
     7    10     4 ar
     8     9     5 ar
     9     5     6 ar
    10    14     6 1
    11     8     7 ar
    12    11     7 1
    13     7    10 ar
    14    12     8 1
    15     8     9 ar
    16     9    41 1
    17    10    42 1
    18    11    28 1
    19    13    12 1
    20    13    43 1
    21    13    44 1
    22    13    45 1
    23    14    15 1
    24    14    46 1
    25    20    15 1
    26    16    15 1
    27    15    47 1
    28    16    17 1
    29    16    48 1
    30    16    49 1
    31    18    17 1
    32    17    50 1
    33    17    51 1
    34    18    34 1
    35    18    19 1
    36    20    19 1
    37    19    52 1
    38    19    53 1
    39    20    54 1
    40    20    55 1
    41    21    22 1
    42    21    56 1
    43    22    23 1
    44    22    57 1
    45    22    58 1
    46    23    24 1
    47    23    59 1
    48    23    60 1
    49    24    25 1
    50    24    61 1
    51    24    62 1
    52    25    27 1
    53    25    26 1
    54    26    63 1
    55    26    64 1
    56    26    65 1
    57    27    66 1
    58    27    67 1
    59    27    68 1
    60    29    28 1
    61    28    69 1
    62    28    70 1
    63    30    29 1
    64    29    71 1
    65    29    72 1
    66    31    30 1
    67    30    73 1
    68    30    74 1
    69    32    31 1
    70    31    75 1
    71    31    76 1
    72    33    32 1
    73    32    77 1
    74    32    78 1
    75    33    79 1
    76    33    80 1
    77    35    34 1
    78    34    81 1
    79    34    82 1
    80    40    35 ar
    81    35    36 ar
    82    37    36 ar
    83    36    83 1
    84    38    37 ar
    85    37    84 1
    86    39    38 ar
    87    38    85 1
    88    39    40 ar
    89    39    86 1
    90    40    87 1
    91    88    33 1
@<TRIPOS>SUBSTRUCTURE
     1 E67         1 TEMP              0 ****  ****    0 ROOT
