@<TRIPOS>MOLECULE
E67
   88    91     1     0     0
SMALL
bcc


@<TRIPOS>ATOM
      1 N1           0.0000     0.0000     0.0000 nb         1 E67      -0.777000
      2 C2           1.3300     0.0000     0.0000 ca         1 E67       0.775900
      3 N3           2.0430     0.0000     1.1100 nb         1 E67      -0.780000
      4 C4           1.4370     0.0000     2.3070 ca         1 E67       0.507600
      5 C5           0.0210    -0.0000     2.3540 ca         1 E67      -0.359600
      6 C6          -0.6910    -0.0000     1.1310 ca         1 E67       0.602200
      7 CAA          1.4950    -0.0000     4.7070 ca         1 E67       0.167100
      8 CAB          0.0940    -0.0000     4.7450 ca         1 E67       0.086100
      9 CAC         -0.6360    -0.0010     3.5920 ca         1 E67      -0.128000
     10 CAF          2.1650     0.0000     3.5030 ca         1 E67      -0.285300
     11 OAK          2.1990    -0.0010     5.8680 os         1 E67      -0.292900
     12 OAL         -0.5460    -0.0020     5.9460 os         1 E67      -0.301900
     13 CAM         -1.9750    -0.0030     5.9200 c3         1 E67       0.241700
     14 NAN         -2.0700    -0.0010     1.1150 nu         1 E67      -0.469900
     15 CAO         -2.7890    -0.0010    -0.1610 c3         1 E67       0.124500
     16 CAP         -4.1810     0.6060     0.0350 c3         1 E67      -0.038400
     17 CAQ         -4.9490     0.5470    -1.2880 c3         1 E67       0.152300
     18 NAR         -5.0620    -0.8490    -1.7290 n3         1 E67      -0.537600
     19 CAS         -3.7380    -1.4380    -1.9690 c3         1 E67       0.152300
     20 CAT         -2.9320    -1.4390    -0.6680 c3         1 E67      -0.038400
     21 NAU          1.9940    -0.0000    -1.2140 nu         1 E67      -0.482900
     22 CAV          3.4580     0.0000    -1.2490 c3         1 E67       0.167800
     23 CAW          3.9340    -0.0000    -2.7030 c3         1 E67      -0.050400
     24 CAX          5.4630     0.0000    -2.7400 c3         1 E67       0.159800
     25 NAY          5.9200    -0.0010    -4.1360 n3         1 E67      -0.545600
     26 CAZ          7.3670     0.2370    -4.2160 c3         1 E67       0.182600
     27 CBA          5.5550    -1.2540    -4.8090 c3         1 E67       0.182600
     28 CBB          3.6250    -0.0010     5.7630 c3         1 E67       0.203400
     29 CBC          4.2390    -0.0020     7.1630 c3         1 E67      -0.032400
     30 CBD          5.7650    -0.0010     7.0500 c3         1 E67      -0.012400
     31 CBE          6.3810    -0.0020     8.4510 c3         1 E67      -0.035400
     32 CBF          7.9060    -0.0020     8.3380 c3         1 E67      -0.053200
     33 NBG          8.4970    -0.0020     9.6840 nz         1 E67       0.086400
     34 CBH         -5.9100    -0.9570    -2.9230 c3         1 E67       0.213100
     35 CBI         -6.2040    -2.4100    -3.2010 ca         1 E67      -0.095300
     36 CBJ         -7.3150    -3.0100    -2.6390 ca         1 E67      -0.091500
     37 CBK         -7.5830    -4.3430    -2.8940 ca         1 E67      -0.100000
     38 CBL         -6.7400    -5.0730    -3.7100 ca         1 E67      -0.098000
     39 CBM         -5.6290    -4.4730    -4.2720 ca         1 E67      -0.100000
     40 CBN         -5.3630    -3.1390    -4.0220 ca         1 E67      -0.091500
     41 HAC         -1.7190    -0.0010     3.6330 ha         1 E67       0.122000
     42 HAF          3.2480     0.0000     3.4820 ha         1 E67       0.130000
     43 HAM         -2.3550    -0.0020     6.9350 h1         1 E67      -0.001967
     44 HAMA        -2.3260    -0.8880     5.4040 h1         1 E67      -0.001967
     45 HAMB        -2.3270     0.8810     5.4020 h1         1 E67      -0.001967
     46 HNAN        -2.5800     0.0280     1.9760 hn         1 E67       0.296800
     47 HAO         -2.2410     0.5850    -0.8900 h1         1 E67       0.058700
     48 HAP         -4.0840     1.6380     0.3490 hc         1 E67       0.025950
     49 HAPA        -4.7170     0.0420     0.7890 hc         1 E67       0.025950
     50 HAQ         -4.4180     1.1190    -2.0380 h1         1 E67       0.016200
     51 HAQA        -5.9410     0.9600    -1.1470 h1         1 E67       0.016200
     52 HAS         -3.2150    -0.8520    -2.7150 h1         1 E67       0.016200
     53 HASA        -3.8560    -2.4560    -2.3200 h1         1 E67       0.016200
     54 HAT         -3.4490    -2.0330     0.0760 hc         1 E67       0.025950
     55 HATA        -1.9500    -1.8560    -0.8520 hc         1 E67       0.025950
     56 HNAU         1.4730     0.0150    -2.0680 hn         1 E67       0.301800
     57 HAV          3.8300     0.8850    -0.7480 h1         1 E67       0.022200
     58 HAVA         3.8310    -0.8840    -0.7470 h1         1 E67       0.022200
     59 HAW          3.5610     0.8840    -3.2060 hc         1 E67       0.027700
     60 HAWA         3.5610    -0.8850    -3.2050 hc         1 E67       0.027700
     61 HAX          5.8360     0.8850    -2.2390 h1         1 E67       0.008200
     62 HAXA         5.8370    -0.8840    -2.2370 h1         1 E67       0.008200
     63 HAZ          7.6720     0.2630    -5.2560 h1         1 E67       0.001867
     64 HAZA         7.6030     1.1850    -3.7470 h1         1 E67       0.001867
     65 HAZB         7.8940    -0.5600    -3.7050 h1         1 E67       0.001867
     66 HBA          4.5650    -1.1590    -5.2380 h1         1 E67       0.001867
     67 HBAA         5.5600    -2.0650    -4.0900 h1         1 E67       0.001867
     68 HBAB         6.2710    -1.4640    -5.5950 h1         1 E67       0.001867
     69 HBB          3.9470     0.8830     5.2280 h1         1 E67       0.007700
     70 HBBA         3.9470    -0.8860     5.2270 h1         1 E67       0.007700
     71 HBC          3.9170    -0.8870     7.6980 hc         1 E67       0.030700
     72 HBCA         3.9160     0.8820     7.7000 hc         1 E67       0.030700
     73 HBD          6.0870     0.8840     6.5150 hc         1 E67       0.027700
     74 HBDA         6.0880    -0.8850     6.5140 hc         1 E67       0.027700
     75 HBE          6.0590     0.8830     8.9870 hc         1 E67       0.035700
     76 HBEA         6.0580    -0.8860     8.9870 hc         1 E67       0.035700
     77 HBF          8.2290     0.8830     7.8020 hx         1 E67       0.086200
     78 HBFA         8.2280    -0.8860     7.8020 hx         1 E67       0.086200
     79 HNBG         9.4950     0.0110     9.6100 hn         1 E67       0.223133
     80 HNBA         8.2090    -0.8250    10.1740 hn         1 E67       0.223133
     81 HBH         -6.8400    -0.4270    -2.7540 h1         1 E67       0.013200
     82 HBHA        -5.3960    -0.5240    -3.7720 h1         1 E67       0.013200
     83 HBJ         -7.9750    -2.4370    -1.9990 ha         1 E67       0.106000
     84 HBK         -8.4530    -4.8140    -2.4540 ha         1 E67       0.103500
     85 HBL         -6.9490    -6.1170    -3.9080 ha         1 E67       0.103000
     86 HBM         -4.9700    -5.0450    -4.9130 ha         1 E67       0.103500
     87 HBN         -4.4930    -2.6680    -4.4620 ha         1 E67       0.106000
     88 HBG3         8.1900     0.8090    10.1830 hn         1 E67       0.223133
@<TRIPOS>BOND
     1     1     2 ar  
     2     1     6 ar  
     3     2     3 ar  
     4     2    21 1   
     5     3     4 ar  
     6     4     5 ar  
     7     4    10 ar  
     8     5     6 ar  
     9     5     9 ar  
    10     6    14 1   
    11     7     8 ar  
    12     7    10 ar  
    13     7    11 1   
    14     8     9 ar  
    15     8    12 1   
    16     9    41 1   
    17    10    42 1   
    18    11    28 1   
    19    12    13 1   
    20    13    43 1   
    21    13    44 1   
    22    13    45 1   
    23    14    15 1   
    24    14    46 1   
    25    15    16 1   
    26    15    20 1   
    27    15    47 1   
    28    16    17 1   
    29    16    48 1   
    30    16    49 1   
    31    17    18 1   
    32    17    50 1   
    33    17    51 1   
    34    18    19 1   
    35    18    34 1   
    36    19    20 1   
    37    19    52 1   
    38    19    53 1   
    39    20    54 1   
    40    20    55 1   
    41    21    22 1   
    42    21    56 1   
    43    22    23 1   
    44    22    57 1   
    45    22    58 1   
    46    23    24 1   
    47    23    59 1   
    48    23    60 1   
    49    24    25 1   
    50    24    61 1   
    51    24    62 1   
    52    25    26 1   
    53    25    27 1   
    54    26    63 1   
    55    26    64 1   
    56    26    65 1   
    57    27    66 1   
    58    27    67 1   
    59    27    68 1   
    60    28    29 1   
    61    28    69 1   
    62    28    70 1   
    63    29    30 1   
    64    29    71 1   
    65    29    72 1   
    66    30    31 1   
    67    30    73 1   
    68    30    74 1   
    69    31    32 1   
    70    31    75 1   
    71    31    76 1   
    72    32    33 1   
    73    32    77 1   
    74    32    78 1   
    75    33    79 1   
    76    33    80 1   
    77    33    88 1   
    78    34    35 1   
    79    34    81 1   
    80    34    82 1   
    81    35    36 ar  
    82    35    40 ar  
    83    36    37 ar  
    84    36    83 1   
    85    37    38 ar  
    86    37    84 1   
    87    38    39 ar  
    88    38    85 1   
    89    39    40 ar  
    90    39    86 1   
    91    40    87 1   
@<TRIPOS>SUBSTRUCTURE
     1 E67         1 TEMP              0 ****  ****    0 ROOT
