@<TRIPOS>MOLECULE
molecule
   39    42     1     0     0
SMALL
bcc


@<TRIPOS>ATOM
      1 O40          0.0000     0.0000     0.0000 o          1 E6A      -0.503100
      2 C23          1.2130     0.0000     0.0000 c          1 E6A       0.588700
      3 C24          1.9660     0.0000     1.2680 ca         1 E6A      -0.126600
      4 C37          1.3470    -0.3350     2.4680 ca         1 E6A      -0.076000
      5 C36          2.0780    -0.3240     3.6430 ca         1 E6A      -0.114000
      6 C35          3.4200     0.0160     3.6350 ca         1 E6A      -0.115000
      7 C34          4.0530     0.3520     2.4500 ca         1 E6A      -0.080000
      8 C25          3.3350     0.3470     1.2590 ca         1 E6A      -0.131600
      9 C26          3.9820     0.6990    -0.0190 c          1 E6A       0.572700
     10 O38          5.1900     0.7110    -0.1190 o          1 E6A      -0.504100
     11 C27          3.1050     1.0430    -1.2030 c3         1 E6A       0.036100
     12 O41          2.5360     2.3400    -1.0170 oh         1 E6A      -0.580800
     13 C22          1.9860    -0.0090    -1.3000 c3         1 E6A      -0.171700
     14 C6           2.5980    -1.3920    -1.5350 c3         1 E6A      -0.147700
     15 C5           2.8030    -1.6170    -3.0390 c3         1 E6A      -0.082300
     16 Br           3.9600    -0.2040    -3.7670 br         1 E6A      -0.112400
     17 C4           1.4520    -1.5680    -3.7200 c          1 E6A       0.571700
     18 O20          1.2950    -0.9300    -4.7370 o          1 E6A      -0.482100
     19 C18          0.3330    -2.3160    -3.1180 ca         1 E6A      -0.137600
     20 C13          0.4340    -2.7550    -1.7780 ca         1 E6A      -0.135600
     21 C1           1.6590    -2.4580    -1.0130 c          1 E6A       0.573700
     22 O19          1.9080    -3.0550     0.0130 o          1 E6A      -0.492100
     23 C17         -0.8160    -2.5950    -3.8490 ca         1 E6A      -0.075000
     24 C16         -1.8520    -3.2980    -3.2580 ca         1 E6A      -0.111000
     25 C15         -1.7530    -3.7270    -1.9460 ca         1 E6A      -0.109000
     26 C14         -0.6170    -3.4590    -1.2020 ca         1 E6A      -0.070000
     27 H1           0.2980    -0.6020     2.4830 ha         1 E6A       0.153000
     28 H2           1.5970    -0.5850     4.5780 ha         1 E6A       0.138000
     29 H3           3.9790     0.0190     4.5620 ha         1 E6A       0.138000
     30 H4           5.1040     0.6170     2.4510 ha         1 E6A       0.154000
     31 H5           3.6980     1.0260    -2.1100 h1         1 E6A       0.099700
     32 H6           2.7560     2.8880    -1.7520 ho         1 E6A       0.416000
     33 H7           1.3220     0.2440    -2.1180 hc         1 E6A       0.100700
     34 H8           3.5500    -1.4660    -1.0240 hc         1 E6A       0.103700
     35 H9           3.2570    -2.5870    -3.2020 h1         1 E6A       0.114700
     36 H10         -0.9010    -2.2630    -4.8770 ha         1 E6A       0.157000
     37 H11         -2.7480    -3.5160    -3.8270 ha         1 E6A       0.142000
     38 H12         -2.5720    -4.2760    -1.4970 ha         1 E6A       0.142000
     39 H13         -0.5470    -3.7980    -0.1750 ha         1 E6A       0.157000
@<TRIPOS>BOND
     1    12    11 1
     2    10     9 2
     3    24    25 ar
     4    24    23 ar
     5    25    26 ar
     6    11     9 1
     7    11    13 1
     8    23    19 ar
     9    26    20 ar
    10    15    14 1
    11    15    17 1
    12    15    16 1
    13     9     8 1
    14    14    13 1
    15    14    21 1
    16    19    20 ar
    17    19    17 1
    18    20    21 1
    19    17    18 2
    20    13     2 1
    21    21    22 2
    22     8     7 ar
    23     8     3 ar
    24     7     6 ar
    25     2     3 1
    26     2     1 2
    27     3     4 ar
    28     6     5 ar
    29     4     5 ar
    30     4    27 1
    31     5    28 1
    32     6    29 1
    33     7    30 1
    34    11    31 1
    35    12    32 1
    36    13    33 1
    37    14    34 1
    38    15    35 1
    39    23    36 1
    40    24    37 1
    41    25    38 1
    42    26    39 1
@<TRIPOS>SUBSTRUCTURE
     1 E6A         1 TEMP              0 ****  ****    0 ROOT
