@<TRIPOS>MOLECULE
E6C
   49    48     1     0     0
SMALL
bcc


@<TRIPOS>ATOM
      1 O1           0.0000     0.0000     0.0000 oh         1 E6C      -0.530800
      2 C2           1.9370     1.2500    -0.7200 c3         1 E6C      -0.143400
      3 C3           1.4290     0.0000     0.0000 c3         1 E6C       0.149100
      4 C4           1.9320     0.0000     1.4200 c          1 E6C       0.535100
      5 O5           1.1430    -0.0010     2.3420 o          1 E6C      -0.642100
      6 N6           3.2560     0.0020     1.6660 ns         1 E6C      -0.178900
      7 C7           3.7460    -0.0470     3.0450 c3         1 E6C      -0.068300
      8 C8           4.5420     1.1970     3.3390 c          1 E6C       0.558100
      9 O9           4.6870     2.0410     2.4810 o          1 E6C      -0.627100
     10 N10          5.0950     1.3730     4.5560 ns         1 E6C      -0.215900
     11 C11          5.8700     2.5820     4.8410 c3         1 E6C       0.044000
     12 C12          6.3800     2.5330     6.2820 c3         1 E6C      -0.039400
     13 C13          7.1910     3.7960     6.5810 c3         1 E6C      -0.048700
     14 C14          7.7020     3.7460     8.0220 c3         1 E6C       0.002400
     15 C15          8.3790     3.8790     5.6210 c3         1 E6C       0.002400
     16 C16          1.4330     1.2500    -2.1410 c          1 E6C       0.987600
     17 O17          0.7390     0.3440    -2.5370 o          1 E6C      -0.900800
     18 O18          1.7570     2.2580    -2.9670 o          1 E6C      -0.900800
     19 C19          4.6340    -1.2770     3.2300 c3         1 E6C      -0.031400
     20 C20          3.7930    -2.5450     3.0640 c3         1 E6C       0.001300
     21 C21          4.6980    -3.7740     3.1630 c3         1 E6C      -0.269600
     22 C22          2.7330    -2.6010     4.1640 c3         1 E6C      -0.269600
     23 HO1         -0.3140    -0.8890    -0.0110 ho         1 E6C       0.370000
     24 H21          1.5750     2.1330    -0.2080 hc         1 E6C       0.020700
     25 H22          3.0200     1.2510    -0.7210 hc         1 E6C       0.020700
     26 H3           1.7900    -0.8840    -0.5120 h1         1 E6C       0.008700
     27 HN6          3.9050     0.0400     0.9060 hn         1 E6C       0.187500
     28 H7           2.9040    -0.1060     3.7250 h1         1 E6C       0.115700
     29 HN1          4.9820     0.6740     5.2620 hn         1 E6C       0.171500
     30 H111         6.7110     2.6410     4.1620 h1         1 E6C       0.029700
     31 H112         5.2400     3.4540     4.7110 h1         1 E6C       0.029700
     32 H121         7.0100     1.6610     6.4120 hc         1 E6C       0.015200
     33 H122         5.5390     2.4750     6.9620 hc         1 E6C       0.015200
     34 H13          6.5610     4.6680     6.4510 hc         1 E6C       0.030700
     35 H141         8.2290     4.6650     8.2500 hc         1 E6C       0.003367
     36 H142         6.8630     3.6340     8.6980 hc         1 E6C       0.003367
     37 H143         8.3740     2.9050     8.1380 hc         1 E6C       0.003367
     38 H151         8.0490     4.2820     4.6720 hc         1 E6C       0.003367
     39 H152         9.1390     4.5240     6.0430 hc         1 E6C       0.003367
     40 H153         8.7900     2.8880     5.4690 hc         1 E6C       0.003367
     41 H191         5.4230    -1.2680     2.4870 hc         1 E6C       0.011200
     42 H192         5.0720    -1.2620     4.2210 hc         1 E6C       0.011200
     43 H20          3.3070    -2.5320     2.0950 hc         1 E6C       0.053700
     44 H211         5.3830    -3.7870     2.3240 hc         1 E6C       0.079533
     45 H212         5.2600    -3.7340     4.0880 hc         1 E6C       0.079533
     46 H213         4.0910    -4.6710     3.1470 hc         1 E6C       0.079533
     47 H221         3.6160    -2.4370     4.7700 hc         1 E6C       0.079533
     48 H222         2.5510    -3.3230     4.9510 hc         1 E6C       0.079533
     49 H223         2.4190    -3.4470     3.5660 hc         1 E6C       0.079533
@<TRIPOS>BOND
     1     1     3 1   
     2     1    23 1   
     3     2     3 1   
     4     2    16 1   
     5     2    24 1   
     6     2    25 1   
     7     3     4 1   
     8     3    26 1   
     9     4     5 2   
    10     4     6 1   
    11     6     7 1   
    12     6    27 1   
    13     7     8 1   
    14     7    19 1   
    15     7    28 1   
    16     8     9 2   
    17     8    10 1   
    18    10    11 1   
    19    10    29 1   
    20    11    12 1   
    21    11    30 1   
    22    11    31 1   
    23    12    13 1   
    24    12    32 1   
    25    12    33 1   
    26    13    14 1   
    27    13    15 1   
    28    13    34 1   
    29    14    35 1   
    30    14    36 1   
    31    14    37 1   
    32    15    38 1   
    33    15    39 1   
    34    15    40 1   
    35    16    17 1   
    36    16    18 1   
    37    19    20 1   
    38    19    41 1   
    39    19    42 1   
    40    20    21 1   
    41    20    22 1   
    42    20    43 1   
    43    21    44 1   
    44    21    45 1   
    45    21    46 1   
    46    22    47 1   
    47    22    48 1   
    48    22    49 1   
@<TRIPOS>SUBSTRUCTURE
     1 E6C         1 TEMP              0 ****  ****    0 ROOT
