@<TRIPOS>MOLECULE
E6D
   56    55     1     0     0
SMALL
bcc


@<TRIPOS>ATOM
      1 C14          0.0000     0.0000     0.0000 c3         1 E6D       0.002900
      2 C13          1.5300     0.0000     0.0000 c3         1 E6D      -0.048700
      3 C15          2.0400     0.0000     1.4430 c3         1 E6D       0.002900
      4 C12          2.0410    -1.2480    -0.7210 c3         1 E6D      -0.039400
      5 C11          1.6360    -1.1870    -2.1950 c3         1 E6D       0.040000
      6 N10          2.1250    -2.3820    -2.8870 ns         1 E6D      -0.183900
      7 C8           1.8850    -2.5460    -4.2020 c          1 E6D       0.566100
      8 O9           1.2640    -1.7040    -4.8150 o          1 E6D      -0.659100
      9 C7           2.3880    -3.7770    -4.9130 c3         1 E6D      -0.062300
     10 C19          3.9120    -3.8410    -4.8050 c3         1 E6D      -0.036400
     11 C20          4.4130    -5.1500    -5.4170 c3         1 E6D      -0.066700
     12 C22          5.9430    -5.1600    -5.4220 c3         1 E6D      -0.004100
     13 C21          3.8980    -6.3290    -4.5880 c3         1 E6D      -0.004100
     14 N6           2.0000    -3.7180    -6.3240 ns         1 E6D      -0.175900
     15 C4           1.8740    -4.8550    -7.0360 c          1 E6D       0.536100
     16 O5           2.0810    -5.9270    -6.5090 o          1 E6D      -0.624100
     17 C3           1.4750    -4.7940    -8.4890 c3         1 E6D       0.138100
     18 O1           1.5220    -6.1080    -9.0500 oh         1 E6D      -0.548800
     19 C2           0.0540    -4.2410    -8.6040 c3         1 E6D      -0.082400
     20 C16         -0.2990    -4.0650   -10.0590 c          1 E6D       0.703100
     21 O18          0.5030    -4.3530   -10.9160 o          1 E6D      -0.590000
     22 O17         -1.5070    -3.5880   -10.4030 os         1 E6D      -0.414900
     23 C23         -1.7780    -3.4440   -11.8220 c3         1 E6D       0.227400
     24 H1          -0.3610     0.6320     0.8020 hc         1 E6D       0.005200
     25 H2          -0.3610    -1.0110     0.1460 hc         1 E6D       0.005200
     26 H3          -0.3610     0.3790    -0.9490 hc         1 E6D       0.005200
     27 H4           1.8910     0.8850    -0.5100 hc         1 E6D       0.029700
     28 H5           3.1230    -0.0290     1.4430 hc         1 E6D       0.005200
     29 H6           1.6550    -0.8690     1.9620 hc         1 E6D       0.005200
     30 H7           1.7030     0.8990     1.9450 hc         1 E6D       0.005200
     31 H8           3.1200    -1.2940    -0.6450 hc         1 E6D       0.019200
     32 H9           1.6090    -2.1310    -0.2650 hc         1 E6D       0.019200
     33 H10          0.5570    -1.1410    -2.2720 h1         1 E6D       0.031700
     34 H11          2.0680    -0.3040    -2.6520 h1         1 E6D       0.031700
     35 H12          2.6190    -3.0880    -2.3770 hn         1 E6D       0.179500
     36 H13          1.9560    -4.6590    -4.4560 h1         1 E6D       0.074700
     37 H14          4.2030    -3.7960    -3.7620 hc         1 E6D       0.020700
     38 H15          4.3480    -3.0040    -5.3370 hc         1 E6D       0.020700
     39 H16          4.0480    -5.2360    -6.4330 hc         1 E6D       0.049700
     40 H17          6.3070    -4.3300    -6.0150 hc         1 E6D       0.007533
     41 H18          6.2970    -6.0910    -5.8470 hc         1 E6D       0.007533
     42 H19          6.3070    -5.0650    -4.4060 hc         1 E6D       0.007533
     43 H20          4.1650    -6.1830    -3.5480 hc         1 E6D       0.007533
     44 H21          4.3450    -7.2470    -4.9500 hc         1 E6D       0.007533
     45 H22          2.8210    -6.3920    -4.6790 hc         1 E6D       0.007533
     46 H23          1.8200    -2.8340    -6.7570 hn         1 E6D       0.197500
     47 H24          2.1590    -4.1480    -9.0240 h1         1 E6D       0.022700
     48 H25          2.3140    -6.2070    -9.5520 ho         1 E6D       0.400000
     49 H26         -0.0030    -3.2830    -8.1010 hc         1 E6D       0.050700
     50 H27         -0.6420    -4.9320    -8.1450 hc         1 E6D       0.050700
     51 H28         -1.6980    -4.4110   -12.3050 h1         1 E6D       0.009200
     52 H29         -1.0600    -2.7610   -12.2600 h1         1 E6D       0.009200
     53 C24         -3.1910    -2.8920   -12.0180 c3         1 E6D      -0.003100
     54 H30         -3.2710    -1.9250   -11.5370 hc         1 E6D       0.010700
     55 H31         -3.9090    -3.5740   -11.5790 hc         1 E6D       0.010700
     56 H32         -3.3940    -2.7860   -13.0770 hc         1 E6D       0.010700
@<TRIPOS>BOND
     1     1     2 1   
     2     1    24 1   
     3     1    25 1   
     4     1    26 1   
     5     2     3 1   
     6     2     4 1   
     7     2    27 1   
     8     3    28 1   
     9     3    29 1   
    10     3    30 1   
    11     4     5 1   
    12     4    31 1   
    13     4    32 1   
    14     5     6 1   
    15     5    33 1   
    16     5    34 1   
    17     6     7 1   
    18     6    35 1   
    19     7     8 2   
    20     7     9 1   
    21     9    10 1   
    22     9    14 1   
    23     9    36 1   
    24    10    11 1   
    25    10    37 1   
    26    10    38 1   
    27    11    12 1   
    28    11    13 1   
    29    11    39 1   
    30    12    40 1   
    31    12    41 1   
    32    12    42 1   
    33    13    43 1   
    34    13    44 1   
    35    13    45 1   
    36    14    15 1   
    37    14    46 1   
    38    15    16 2   
    39    15    17 1   
    40    17    18 1   
    41    17    19 1   
    42    17    47 1   
    43    18    48 1   
    44    19    20 1   
    45    19    49 1   
    46    19    50 1   
    47    20    21 2   
    48    20    22 1   
    49    22    23 1   
    50    23    51 1   
    51    23    52 1   
    52    23    53 1   
    53    53    54 1   
    54    53    55 1   
    55    53    56 1   
@<TRIPOS>SUBSTRUCTURE
     1 E6D         1 TEMP              0 ****  ****    0 ROOT
