@<TRIPOS>MOLECULE
E6Q
   29    32     1     0     0
SMALL
bcc


@<TRIPOS>ATOM
      1 C4           0.0000     0.0000     0.0000 ca         1 E6Q      -0.099000
      2 C5           2.0740     0.0000     1.1970 ca         1 E6Q      -0.105000
      3 C6           1.3800     0.0000     0.0000 ca         1 E6Q      -0.098500
      4 N1          -4.2950     0.5510     0.7780 na         1 E6Q       0.370600
      5 C7          -2.1770     0.0060     1.2160 cc         1 E6Q      -0.089400
      6 C8          -3.0540    -0.8990     1.9690 ca         1 E6Q      -0.079800
      7 N2          -7.4470    -2.0170     2.9600 nc         1 E6Q      -0.581100
      8 C9          -2.9860     0.8460     0.5210 cd         1 E6Q      -0.244100
      9 C10         -4.3810    -0.5030     1.6560 ca         1 E6Q      -0.152200
     10 C11         -2.8240    -1.9550     2.8450 ca         1 E6Q      -0.030000
     11 C12         -3.8890    -2.6270     3.4200 ca         1 E6Q      -0.076000
     12 C13         -5.4410    -1.1810     2.2360 ca         1 E6Q      -0.216600
     13 C14         -5.1940    -2.2490     3.1230 ca         1 E6Q      -0.210900
     14 C15         -6.9190    -1.0690     2.1630 c          1 E6Q       0.737100
     15 C1           0.0100    -0.0060     2.4120 ca         1 E6Q      -0.099000
     16 C3           1.3900    -0.0010     2.3990 ca         1 E6Q      -0.098500
     17 C2          -0.6950     0.0010     1.2090 ca         1 E6Q      -0.003800
     18 C16         -6.5210    -2.7310     3.5420 cd         1 E6Q       0.574800
     19 O1          -7.5440    -0.2650     1.5000 o          1 E6Q      -0.519100
     20 H1          -0.5420    -0.0000    -0.9380 ha         1 E6Q       0.107500
     21 H2           3.1570     0.0020     1.1920 ha         1 E6Q       0.102000
     22 H3           1.9210     0.0000    -0.9390 ha         1 E6Q       0.102000
     23 H5          -2.6450     1.6350    -0.1390 h4         1 E6Q       0.148000
     24 H6          -1.8090    -2.2580     3.0710 ha         1 E6Q       0.112000
     25 H7          -3.7050    -3.4500     4.1000 ha         1 E6Q       0.108000
     26 H8          -0.5240    -0.0060     3.3540 ha         1 E6Q       0.107500
     27 H9           1.9390    -0.0040     3.3330 ha         1 E6Q       0.102000
     28 H10         -6.6720    -3.0940     4.5510 h4         1 E6Q       0.001800
     29 H4          -5.0790     1.0320     0.3830 hn         1 E6Q       0.132700
@<TRIPOS>BOND
     1     1     3 ar  
     2     1    17 ar  
     3     1    20 1   
     4     2     3 ar  
     5     2    16 ar  
     6     2    21 1   
     7     3    22 1   
     8     4     8 1   
     9     4     9 1   
    10     4    29 1   
    11     5     6 1   
    12     5     8 2   
    13     5    17 1   
    14     6     9 ar  
    15     6    10 ar  
    16     7    14 1   
    17     7    18 2   
    18     8    23 1   
    19     9    12 ar  
    20    10    11 ar  
    21    10    24 1   
    22    11    13 ar  
    23    11    25 1   
    24    12    13 ar  
    25    12    14 1   
    26    13    18 1   
    27    14    19 2   
    28    15    16 ar  
    29    15    17 ar  
    30    15    26 1   
    31    16    27 1   
    32    18    28 1   
@<TRIPOS>SUBSTRUCTURE
     1 E6Q         1 TEMP              0 ****  ****    0 ROOT
