@<TRIPOS>MOLECULE
molecule
   29    32     1     0     0
SMALL
bcc


@<TRIPOS>ATOM
      1 C4           0.0000     0.0000     0.0000 ca         1 E6Q      -0.120500
      2 C5           2.0740     0.0000     1.1970 ca         1 E6Q      -0.129000
      3 C6           1.3800     0.0000     0.0000 ca         1 E6Q      -0.127000
      4 N1          -4.2950     0.5510     0.7780 na         1 E6Q      -0.172400
      5 C7          -2.1770     0.0060     1.2160 cc         1 E6Q      -0.109400
      6 C8          -3.0540    -0.8990     1.9690 ca         1 E6Q      -0.073800
      7 N2          -7.4470    -2.0170     2.9600 nd         1 E6Q      -0.649100
      8 C9          -2.9860     0.8460     0.5210 cd         1 E6Q      -0.069100
      9 C10         -4.3810    -0.5030     1.6560 ca         1 E6Q       0.027800
     10 C11         -2.8240    -1.9550     2.8450 ca         1 E6Q      -0.069000
     11 C12         -3.8890    -2.6270     3.4200 ca         1 E6Q      -0.106000
     12 C13         -5.4410    -1.1810     2.2360 ca         1 E6Q      -0.220600
     13 C14         -5.1940    -2.2490     3.1230 ca         1 E6Q      -0.211900
     14 C15         -6.9190    -1.0690     2.1630 c          1 E6Q       0.714100
     15 C1           0.0100    -0.0060     2.4120 ca         1 E6Q      -0.120500
     16 C3           1.3900    -0.0010     2.3990 ca         1 E6Q      -0.127000
     17 C2          -0.6950     0.0010     1.2090 ca         1 E6Q      -0.016800
     18 C16         -6.5210    -2.7310     3.5420 cc         1 E6Q       0.569800
     19 O1          -7.5440    -0.2650     1.5000 o          1 E6Q      -0.482100
     20 H1          -0.5420    -0.0000    -0.9380 ha         1 E6Q       0.133500
     21 H2           3.1570     0.0020     1.1920 ha         1 E6Q       0.130000
     22 H3           1.9210     0.0000    -0.9390 ha         1 E6Q       0.130500
     23 H5          -2.6450     1.6350    -0.1390 h4         1 E6Q       0.177000
     24 H6          -1.8090    -2.2580     3.0710 ha         1 E6Q       0.145000
     25 H7          -3.7050    -3.4500     4.1000 ha         1 E6Q       0.137000
     26 H8          -0.5240    -0.0060     3.3540 ha         1 E6Q       0.133500
     27 H9           1.9390    -0.0040     3.3330 ha         1 E6Q       0.130500
     28 H10         -6.6720    -3.0940     4.5510 h4         1 E6Q       0.057800
     29 H4          -5.0790     1.0320     0.3830 hn         1 E6Q       0.316700
@<TRIPOS>BOND
     1     2     3 ar
     2     2    16 ar
     3     3     1 ar
     4    16    15 ar
     5     1    17 ar
     6    15    17 ar
     7    17     5 1
     8     5     8 2
     9     5     6 1
    10    10     6 ar
    11    10    11 ar
    12     8     4 1
    13     6     9 ar
    14    11    13 ar
    15     4     9 1
    16     9    12 ar
    17    13    12 ar
    18    13    18 1
    19    12    14 1
    20    18     7 2
    21    14     7 1
    22    14    19 2
    23     1    20 1
    24     2    21 1
    25     3    22 1
    26     4    29 1
    27     8    23 1
    28    10    24 1
    29    11    25 1
    30    15    26 1
    31    16    27 1
    32    18    28 1
@<TRIPOS>SUBSTRUCTURE
     1 E6Q         1 TEMP              0 ****  ****    0 ROOT
