@<TRIPOS>MOLECULE
molecule
   30    33     1     0     0
SMALL
bcc


@<TRIPOS>ATOM
      1 C4           0.0000     0.0000     0.0000 ca         1 E6T      -0.073800
      2 C5           1.4690     0.0000     0.0000 cc         1 E6T      -0.112400
      3 C6           1.8600     0.0000     1.3000 cd         1 E6T      -0.067100
      4 N1          -3.8210    -0.0180     2.6330 nc         1 E6T      -0.648100
      5 C7          -0.3880    -0.0060     1.3660 ca         1 E6T       0.026800
      6 C8          -1.7360    -0.0100     1.6840 ca         1 E6T      -0.219600
      7 C9          -2.5120    -0.0160     2.9490 c          1 E6T       0.714100
      8 C10          2.3530    -0.0010    -1.1900 ca         1 E6T      -0.001800
      9 C11          2.1440    -0.9220    -2.2150 ca         1 E6T      -0.129000
     10 C12          2.9690    -0.9200    -3.3220 ca         1 E6T      -0.115000
     11 C13          4.0040    -0.0070    -3.4170 ca         1 E6T      -0.152000
     12 C14          4.2190     0.9130    -2.4000 ca         1 E6T       0.106100
     13 C15          3.3920     0.9220    -1.2880 ca         1 E6T      -0.149000
     14 O           -2.0490    -0.0180     4.0720 o          1 E6T      -0.481100
     15 C           -4.0070    -0.0140     1.3400 cd         1 E6T       0.569800
     16 C1          -2.7020    -0.0090     0.6570 ca         1 E6T      -0.211900
     17 C3          -0.9630    -0.0000    -1.0040 ca         1 E6T      -0.069000
     18 C2          -2.3080    -0.0030    -0.6770 ca         1 E6T      -0.105000
     19 N            0.7650    -0.0010     2.1150 na         1 E6T      -0.171400
     20 O1           5.2380     1.8070    -2.4960 oh         1 E6T      -0.521100
     21 H2           2.8880     0.0000     1.6410 h4         1 E6T       0.176000
     22 H3           1.3350    -1.6380    -2.1440 ha         1 E6T       0.137000
     23 H4           2.8060    -1.6360    -4.1190 ha         1 E6T       0.134000
     24 H5           4.6500    -0.0120    -4.2860 ha         1 E6T       0.141000
     25 H6           3.5590     1.6400    -0.4940 ha         1 E6T       0.142000
     26 H7          -4.8400    -0.5560     0.9100 h4         1 E6T       0.058800
     27 H8          -0.6590     0.0100    -2.0430 ha         1 E6T       0.146000
     28 H9          -3.0540     0.0010    -1.4620 ha         1 E6T       0.138000
     29 H10          6.0050     1.4570    -2.0740 ho         1 E6T       0.419000
     30 H1           0.7960    -0.0010     3.1160 hn         1 E6T       0.316700
@<TRIPOS>BOND
     1    14     7 2
     2     4     7 1
     3     4    15 2
     4     7     6 1
     5    15    16 1
     6     6    16 ar
     7     6     5 ar
     8    16    18 ar
     9    19     5 1
    10    19     3 1
    11     5     1 ar
    12    18    17 ar
    13     3     2 2
    14     1    17 ar
    15     1     2 1
    16     2     8 1
    17     8    13 ar
    18     8     9 ar
    19    13    12 ar
    20     9    10 ar
    21    12    20 1
    22    12    11 ar
    23    10    11 ar
    24     3    21 1
    25     9    22 1
    26    10    23 1
    27    11    24 1
    28    13    25 1
    29    15    26 1
    30    17    27 1
    31    18    28 1
    32    20    29 1
    33    19    30 1
@<TRIPOS>SUBSTRUCTURE
     1 E6T         1 TEMP              0 ****  ****    0 ROOT
