@<TRIPOS>MOLECULE
molecule
   60    62     1     0     0
SMALL
bcc


@<TRIPOS>ATOM
      1 C1           0.0000     0.0000     0.0000 ca         1 E6U      -0.114000
      2 C2           1.3820     0.0000     0.0000 ca         1 E6U      -0.115000
      3 C3          -0.6910    -0.0010     1.1980 ca         1 E6U      -0.115000
      4 C4           5.0540     3.3580     1.3350 ca         1 E6U      -0.051000
      5 C5           2.0740     0.0000     1.1970 ca         1 E6U      -0.115000
      6 C6           0.0010    -0.0010     2.3950 ca         1 E6U      -0.115000
      7 C7           5.8960     3.9630     0.4480 ca         1 E6U      -0.196000
      8 C8           3.1460     3.9090    -0.0500 ca         1 E6U       0.015000
      9 C9           4.0040     4.5280    -0.9560 ca         1 E6U      -0.146800
     10 C10          3.6730     3.3230     1.0980 ca         1 E6U      -0.199600
     11 C11          1.3830    -0.0000     2.3940 ca         1 E6U      -0.083300
     12 C12          5.3900     4.5560    -0.7070 ca         1 E6U       0.129600
     13 C13          4.3820     5.7500    -3.0290 cc         1 E6U      -0.346200
     14 C14          3.4900     5.1590    -2.1800 cd         1 E6U       0.217900
     15 C15          5.7520     5.7450    -2.7250 c          1 E6U       0.710700
     16 C17          3.0390     1.4410     5.5030 c          1 E6U       0.656100
     17 C18          2.2370    -0.5670    12.5420 c2         1 E6U       0.674100
     18 C19          2.1380    -0.0010     3.6990 c3         1 E6U      -0.043100
     19 C20          2.0950     0.2050     8.8800 c3         1 E6U      -0.104400
     20 C21          2.7490     0.2060    10.2640 c3         1 E6U       0.188800
     21 C22          3.0250     0.8890     7.8760 c3         1 E6U       0.120000
     22 C23          2.3950     1.4410     4.1410 c3         1 E6U       0.056700
     23 N24          1.8590    -0.4480    11.2250 nu         1 E6U      -0.885200
     24 N25          6.2300     5.1710    -1.6090 ns         1 E6U      -0.430100
     25 N26          3.4500    -0.0720    12.9560 nz         1 E6U      -0.894600
     26 N27          1.4450    -1.1490    13.3980 n2         1 E6U      -0.755100
     27 N28          3.2840     2.0950     3.1790 ns         1 E6U      -0.574900
     28 O30          6.5320     6.2790    -3.4970 o          1 E6U      -0.634500
     29 O31          1.5770     2.6320     1.8630 o          1 E6U      -0.596100
     30 O33          2.1660     5.1540    -2.4580 oh         1 E6U      -0.486100
     31 H1          -0.5420    -0.0000    -0.9380 ha         1 E6U       0.134000
     32 H2           1.9240     0.0000    -0.9380 ha         1 E6U       0.131500
     33 H3          -1.7740    -0.0010     1.1990 ha         1 E6U       0.131500
     34 H5           3.1570     0.0000     1.1960 ha         1 E6U       0.119500
     35 H6          -0.5400    -0.0010     3.3330 ha         1 E6U       0.119500
     36 H4           5.4560     2.9000     2.2300 ha         1 E6U       0.132000
     37 H7           6.9610     3.9830     0.6420 ha         1 E6U       0.144000
     38 H8           2.0790     3.8840    -0.2360 ha         1 E6U       0.180000
     39 H191         3.0840    -0.5130     3.5680 hc         1 E6U       0.049200
     40 H192         1.5530    -0.5120     4.4540 hc         1 E6U       0.049200
     41 H25          7.2150     5.1900    -1.4300 hn         1 E6U       0.343500
     42 H24          0.9720    -0.8000    10.9250 hn         1 E6U       0.517800
     43 H13          4.0310     6.2220    -3.9380 ha         1 E6U       0.171000
     44 H33          1.9500     5.9160    -2.9700 ho         1 E6U       0.441000
     45 H28          4.2680     2.1350     3.3560 hn         1 E6U       0.334500
     46 H23          1.4550     1.9770     4.1950 h1         1 E6U       0.101700
     47 H29          1.4780     0.5140     6.4340 hn         1 E6U       0.324500
     48 H261         4.1640    -0.7430    13.1600 hn         1 E6U       0.496800
     49 H262         3.3330     0.0970    11.9760 hn         1 E6U       0.496800
     50 H27          1.7210    -1.2360    14.3560 hn         1 E6U       0.453400
     51 H201         1.1550     0.7410     8.9240 hc         1 E6U       0.075200
     52 H202         1.9140    -0.8160     8.5670 hc         1 E6U       0.075200
     53 H211         2.9300     1.2280    10.5770 h1         1 E6U       0.053700
     54 H212         3.6890    -0.3300    10.2190 h1         1 E6U       0.053700
     55 H221         3.2060     1.9100     8.1890 h1         1 E6U       0.058200
     56 H222         3.9650     0.3530     7.8310 h1         1 E6U       0.058200
     57 N29          2.3980     0.8890     6.5520 ns         1 E6U      -0.590900
     58 C16          2.7760     2.6630     2.0680 c          1 E6U       0.682700
     59 H263         3.4230     0.7180    13.5700 hn         1 E6U       0.496800
     60 O32          4.1340     1.9400     5.6550 o          1 E6U      -0.603100
@<TRIPOS>BOND
     1     1     2 ar
     2     1     3 ar
     3     2     5 ar
     4     3     6 ar
     5     4     7 ar
     6     4    10 ar
     7     5    11 ar
     8     6    11 ar
     9     7    12 ar
    10     8     9 ar
    11     8    10 ar
    12     9    12 ar
    13     9    14 1
    14    10    58 1
    15    11    18 1
    16    12    24 1
    17    13    14 2
    18    13    15 1
    19    14    30 1
    20    15    24 1
    21    15    28 2
    22    58    27 1
    23    58    29 2
    24    16    22 1
    25    16    57 1
    26    16    60 2
    27    17    23 1
    28    17    25 1
    29    17    26 2
    30    18    22 1
    31    19    20 1
    32    19    21 1
    33    20    23 1
    34    21    57 1
    35    22    27 1
    36     1    31 1
    37     2    32 1
    38     3    33 1
    39     5    34 1
    40     6    35 1
    41     4    36 1
    42     7    37 1
    43     8    38 1
    44    18    39 1
    45    18    40 1
    46    24    41 1
    47    23    42 1
    48    13    43 1
    49    30    44 1
    50    27    45 1
    51    22    46 1
    52    57    47 1
    53    25    48 1
    54    25    49 1
    55    26    50 1
    56    19    51 1
    57    19    52 1
    58    20    53 1
    59    20    54 1
    60    21    55 1
    61    21    56 1
    62    59    25 1
@<TRIPOS>SUBSTRUCTURE
     1 E6U         1 TEMP              0 ****  ****    0 ROOT
