@<TRIPOS>MOLECULE
E6U
   60    62     1     0     0
SMALL
bcc


@<TRIPOS>ATOM
      1 C1           0.0000     0.0000     0.0000 ca         1 E6U      -0.085000
      2 C2           1.3820     0.0000     0.0000 ca         1 E6U      -0.085000
      3 C3          -0.6910    -0.0010     1.1980 ca         1 E6U      -0.085000
      4 C4           5.0540     3.3580     1.3350 ca         1 E6U      -0.027000
      5 C5           2.0740     0.0000     1.1970 ca         1 E6U      -0.090000
      6 C6           0.0010    -0.0010     2.3950 ca         1 E6U      -0.090000
      7 C7           5.8960     3.9630     0.4480 ca         1 E6U      -0.169000
      8 C8           3.1460     3.9090    -0.0500 ca         1 E6U       0.052000
      9 C9           4.0040     4.5280    -0.9560 ca         1 E6U      -0.151800
     10 C10          3.6730     3.3230     1.0980 ca         1 E6U      -0.213600
     11 C11          1.3830    -0.0000     2.3940 ca         1 E6U      -0.094300
     12 C12          5.3900     4.5560    -0.7070 ca         1 E6U      -0.030400
     13 C13          4.3820     5.7500    -3.0290 cc         1 E6U      -0.341200
     14 C14          3.4900     5.1590    -2.1800 cd         1 E6U       0.239900
     15 C15          5.7520     5.7450    -2.7250 c          1 E6U       0.612700
     16 C17          3.0390     1.4410     5.5030 c          1 E6U       0.573100
     17 C18          2.2370    -0.5670    12.5420 c2         1 E6U       0.261100
     18 C19          2.1380    -0.0010     3.6990 c3         1 E6U       0.025900
     19 C20          2.0950     0.2050     8.8800 c3         1 E6U      -0.037400
     20 C21          2.7490     0.2060    10.2640 c3         1 E6U       0.149800
     21 C22          3.0250     0.8890     7.8760 c3         1 E6U       0.061000
     22 C23          2.3950     1.4410     4.1410 c3         1 E6U      -0.041300
     23 N24          1.8590    -0.4480    11.2250 nu         1 E6U      -0.517200
     24 N25          6.2300     5.1710    -1.6090 ns         1 E6U       0.039900
     25 N26          3.4500    -0.0720    12.9560 nz         1 E6U       0.061400
     26 N27          1.4450    -1.1490    13.3980 n2         1 E6U      -0.594100
     27 N28          3.2840     2.0950     3.1790 ns         1 E6U      -0.189900
     28 O30          6.5320     6.2790    -3.4970 o          1 E6U      -0.681500
     29 O31          1.5770     2.6320     1.8630 o          1 E6U      -0.641100
     30 O33          2.1660     5.1540    -2.4580 oh         1 E6U      -0.467100
     31 H1          -0.5420     0.0000    -0.9380 ha         1 E6U       0.105000
     32 H2           1.9240     0.0010    -0.9380 ha         1 E6U       0.103000
     33 H3          -1.7740    -0.0010     1.1990 ha         1 E6U       0.103000
     34 H5           3.1570     0.0000     1.1960 ha         1 E6U       0.095000
     35 H6          -0.5400    -0.0010     3.3330 ha         1 E6U       0.095000
     36 H4           5.4560     2.9000     2.2300 ha         1 E6U       0.104000
     37 H7           6.9610     3.9830     0.6420 ha         1 E6U       0.118000
     38 H8           2.0790     3.8840    -0.2360 ha         1 E6U       0.143000
     39 H191         3.0840    -0.5130     3.5680 hc         1 E6U       0.017200
     40 H192         1.5530    -0.5120     4.4540 hc         1 E6U       0.017200
     41 H25          7.2150     5.1890    -1.4300 hn         1 E6U       0.179500
     42 H24          0.9710    -0.7990    10.9250 hn         1 E6U       0.348800
     43 H13          4.0310     6.2220    -3.9380 ha         1 E6U       0.147000
     44 H33          1.9520     5.9140    -2.9740 ho         1 E6U       0.420000
     45 H28          4.2680     2.1350     3.3560 hn         1 E6U       0.201500
     46 H23          1.4560     1.9770     4.2100 h1         1 E6U       0.071700
     47 H29          1.4780     0.5140     6.4340 hn         1 E6U       0.186500
     48 H261         4.1650    -0.7430    13.1570 hn         1 E6U       0.262800
     49 H262         3.3330     0.0970    11.9760 hn         1 E6U       0.262800
     50 H27          0.5620    -1.5100    13.0950 hn         1 E6U       0.375400
     51 H201         1.9140    -0.8160     8.5670 hc         1 E6U       0.036700
     52 H202         1.1550     0.7410     8.9240 hc         1 E6U       0.036700
     53 H211         3.6890    -0.3300    10.2190 h1         1 E6U       0.022700
     54 H212         2.9300     1.2280    10.5770 h1         1 E6U       0.022700
     55 H221         3.9650     0.3530     7.8310 h1         1 E6U       0.029200
     56 H222         3.2060     1.9100     8.1890 h1         1 E6U       0.029200
     57 N29          2.3980     0.8890     6.5520 ns         1 E6U      -0.205900
     58 C16          2.7760     2.6630     2.0680 c          1 E6U       0.605700
     59 H263         3.4230     0.6980    13.5960 hn         1 E6U       0.262800
     60 O32          4.1340     1.9400     5.6550 o          1 E6U      -0.641100
@<TRIPOS>BOND
     1     1     2 ar  
     2     1     3 ar  
     3     1    31 1   
     4     2     5 ar  
     5     2    32 1   
     6     3     6 ar  
     7     3    33 1   
     8     4     7 ar  
     9     4    10 ar  
    10     4    36 1   
    11     5    11 ar  
    12     5    34 1   
    13     6    11 ar  
    14     6    35 1   
    15     7    12 ar  
    16     7    37 1   
    17     8     9 ar  
    18     8    10 ar  
    19     8    38 1   
    20     9    12 ar  
    21     9    14 1   
    22    10    58 1   
    23    11    18 1   
    24    12    24 1   
    25    13    14 2   
    26    13    15 1   
    27    13    43 1   
    28    14    30 1   
    29    15    24 1   
    30    15    28 2   
    31    16    22 1   
    32    16    57 1   
    33    16    60 2   
    34    17    23 1   
    35    17    25 1   
    36    17    26 2   
    37    18    22 1   
    38    18    39 1   
    39    18    40 1   
    40    19    20 1   
    41    19    21 1   
    42    19    51 1   
    43    19    52 1   
    44    20    23 1   
    45    20    53 1   
    46    20    54 1   
    47    21    55 1   
    48    21    56 1   
    49    21    57 1   
    50    22    27 1   
    51    22    46 1   
    52    23    42 1   
    53    24    41 1   
    54    25    48 1   
    55    25    49 1   
    56    25    59 1   
    57    26    50 1   
    58    27    45 1   
    59    27    58 1   
    60    29    58 2   
    61    30    44 1   
    62    47    57 1   
@<TRIPOS>SUBSTRUCTURE
     1 E6U         1 TEMP              0 ****  ****    0 ROOT
