@<TRIPOS>MOLECULE
E6W
   29    32     1     0     0
SMALL
bcc


@<TRIPOS>ATOM
      1 C4           0.0000     0.0000     0.0000 ca         1 E6W      -0.083800
      2 C5           1.4680     0.0000     0.0000 cc         1 E6W      -0.057400
      3 C6           2.3530     0.0010    -1.1890 ca         1 E6W      -0.013800
      4 N1          -3.8220    -0.0020     2.6310 nc         1 E6W      -0.578100
      5 C7           3.1800    -1.0920    -1.4460 ca         1 E6W      -0.089500
      6 C8           4.0010    -1.0860    -2.5550 ca         1 E6W      -0.101500
      7 C9           4.0050     0.0020    -3.4100 ca         1 E6W      -0.100000
      8 C10          3.1860     1.0880    -3.1600 ca         1 E6W      -0.101500
      9 C11          2.3570     1.0910    -2.0570 ca         1 E6W      -0.089500
     10 C12          1.8590     0.0000     1.3030 cd         1 E6W      -0.161400
     11 C13         -0.3890     0.0000     1.3660 ca         1 E6W      -0.150200
     12 C14         -1.7380    -0.0010     1.6830 ca         1 E6W      -0.215600
     13 C15         -2.5140    -0.0010     2.9480 c          1 E6W       0.736100
     14 Br           3.6540     0.0010     1.8990 br         1 E6W      -0.020700
     15 N            0.7630     0.0010     2.1180 na         1 E6W       0.388600
     16 C3          -0.9630    -0.0050    -1.0040 ca         1 E6W      -0.023000
     17 C2          -2.3080    -0.0110    -0.6790 ca         1 E6W      -0.077000
     18 C1          -2.7030    -0.0020     0.6560 ca         1 E6W      -0.206900
     19 O           -2.0510    -0.0000     4.0710 o          1 E6W      -0.515100
     20 C           -4.0070    -0.0040     1.3370 cd         1 E6W       0.573800
     21 H1           3.1780    -1.9440    -0.7770 ha         1 E6W       0.109000
     22 H2           4.6440    -1.9340    -2.7560 ha         1 E6W       0.103000
     23 H3           4.6530     0.0030    -4.2780 ha         1 E6W       0.102000
     24 H4           3.1920     1.9360    -3.8350 ha         1 E6W       0.103000
     25 H5           1.7160     1.9430    -1.8620 ha         1 E6W       0.109000
     26 H6           0.7930     0.0010     3.1180 hn         1 E6W       0.137700
     27 H7          -0.6590    -0.0100    -2.0440 ha         1 E6W       0.112000
     28 H8          -3.0540    -0.0230    -1.4640 ha         1 E6W       0.109000
     29 H9          -4.8430     0.5350     0.9090 h4         1 E6W       0.002800
@<TRIPOS>BOND
     1     1     2 1   
     2     1    11 ar  
     3     1    16 ar  
     4     2     3 1   
     5     2    10 2   
     6     3     5 ar  
     7     3     9 ar  
     8     4    13 1   
     9     4    20 2   
    10     5     6 ar  
    11     5    21 1   
    12     6     7 ar  
    13     6    22 1   
    14     7     8 ar  
    15     7    23 1   
    16     8     9 ar  
    17     8    24 1   
    18     9    25 1   
    19    10    14 1   
    20    10    15 1   
    21    11    12 ar  
    22    11    15 1   
    23    12    13 1   
    24    12    18 ar  
    25    13    19 2   
    26    15    26 1   
    27    16    17 ar  
    28    16    27 1   
    29    17    18 ar  
    30    17    28 1   
    31    18    20 1   
    32    20    29 1   
@<TRIPOS>SUBSTRUCTURE
     1 E6W         1 TEMP              0 ****  ****    0 ROOT
