@<TRIPOS>MOLECULE
molecule
   29    32     1     0     0
SMALL
bcc


@<TRIPOS>ATOM
      1 C4           0.0000     0.0000     0.0000 ca         1 E6W      -0.079800
      2 C5           1.4680     0.0000     0.0000 cc         1 E6W      -0.064400
      3 C6           2.3530     0.0010    -1.1890 ca         1 E6W      -0.030800
      4 N1          -3.8220    -0.0020     2.6310 nd         1 E6W      -0.646100
      5 C7           3.1800    -1.0920    -1.4460 ca         1 E6W      -0.108500
      6 C8           4.0010    -1.0860    -2.5550 ca         1 E6W      -0.130000
      7 C9           4.0050     0.0020    -3.4100 ca         1 E6W      -0.123000
      8 C10          3.1860     1.0880    -3.1600 ca         1 E6W      -0.130000
      9 C11          2.3570     1.0910    -2.0570 ca         1 E6W      -0.108500
     10 C12          1.8590     0.0000     1.3030 cd         1 E6W       0.008600
     11 C13         -0.3890     0.0000     1.3660 ca         1 E6W       0.035800
     12 C14         -1.7380    -0.0010     1.6830 ca         1 E6W      -0.221600
     13 C15         -2.5140    -0.0010     2.9480 c          1 E6W       0.713100
     14 Br           3.6540     0.0010     1.8990 br         1 E6W      -0.011700
     15 N            0.7630     0.0010     2.1180 na         1 E6W      -0.159400
     16 C3          -0.9630    -0.0050    -1.0040 ca         1 E6W      -0.061000
     17 C2          -2.3080    -0.0110    -0.6790 ca         1 E6W      -0.107000
     18 C1          -2.7030    -0.0020     0.6560 ca         1 E6W      -0.204900
     19 O           -2.0510    -0.0000     4.0710 o          1 E6W      -0.477100
     20 C           -4.0070    -0.0040     1.3370 cc         1 E6W       0.567800
     21 H1           3.1780    -1.9440    -0.7770 ha         1 E6W       0.136500
     22 H2           4.6440    -1.9340    -2.7560 ha         1 E6W       0.132000
     23 H3           4.6530     0.0030    -4.2780 ha         1 E6W       0.130000
     24 H4           3.1920     1.9360    -3.8350 ha         1 E6W       0.132000
     25 H5           1.7160     1.9430    -1.8620 ha         1 E6W       0.136500
     26 H6           0.7930     0.0010     3.1180 hn         1 E6W       0.323700
     27 H7          -0.6590    -0.0100    -2.0440 ha         1 E6W       0.148000
     28 H8          -3.0540    -0.0230    -1.4640 ha         1 E6W       0.140000
     29 H9          -4.8430     0.5350     0.9090 h4         1 E6W       0.059800
@<TRIPOS>BOND
     1     7     6 ar
     2     7     8 ar
     3     6     5 ar
     4     8     9 ar
     5     5     3 ar
     6     9     3 ar
     7     3     2 1
     8    14    10 1
     9     2    10 2
    10     2     1 1
    11    10    15 1
    12    16     1 ar
    13    16    17 ar
    14     1    11 ar
    15    15    11 1
    16    17    18 ar
    17    11    12 ar
    18    18    12 ar
    19    18    20 1
    20    12    13 1
    21    20     4 2
    22    13    19 2
    23    13     4 1
    24     5    21 1
    25     6    22 1
    26     7    23 1
    27     8    24 1
    28     9    25 1
    29    15    26 1
    30    16    27 1
    31    17    28 1
    32    20    29 1
@<TRIPOS>SUBSTRUCTURE
     1 E6W         1 TEMP              0 ****  ****    0 ROOT
