@<TRIPOS>MOLECULE
molecule
   43    45     1     0     0
SMALL
bcc


@<TRIPOS>ATOM
      1 CAA          0.0000     0.0000     0.0000 c3         1 E70       0.125700
      2 OAS          1.4290     0.0000     0.0000 os         1 E70      -0.321900
      3 CAV          2.0460     0.0000     1.2110 ca         1 E70       0.198100
      4 CAL          3.4310     0.0010     1.2850 ca         1 E70      -0.212000
      5 CAN          4.0560     0.0010     2.5170 ca         1 E70       0.012000
      6 CAM          1.2920     0.0060     2.3750 ca         1 E70      -0.212000
      7 CAO          1.9220     0.0060     3.6050 ca         1 E70       0.012000
      8 CAW          3.3030     0.0010     3.6760 ca         1 E70      -0.355500
      9 SAZ          4.1020     0.0000     5.2460 sy         1 E70       1.433200
     10 OAB          3.1710    -0.5440     6.1700 o          1 E70      -0.636800
     11 OAC          5.3970    -0.5440     5.0360 o          1 E70      -0.636800
     12 NAR          4.3250     1.5830     5.6830 nu         1 E70      -0.765500
     13 CAX          3.2170     2.4030     5.9300 ca         1 E70      -0.033700
     14 CAG          2.0720     1.8820     6.5180 ca         1 E70      -0.110000
     15 CAE          0.9990     2.7340     6.7430 ca         1 E70      -0.283300
     16 CAF          1.1010     4.0620     6.3820 ca         1 E70       0.445200
     17 NAP          2.2020     4.5330     5.8240 nb         1 E70      -0.734000
     18 CAY          3.2510     3.7590     5.5960 ca         1 E70       0.679200
     19 NAQ          4.3940     4.3000     5.0120 nu         1 E70      -0.774300
     20 CAU          4.3930     5.6270     4.5690 ca         1 E70       0.154600
     21 CAJ          5.5560     6.3830     4.6360 ca         1 E70      -0.137500
     22 CAH          5.5530     7.6930     4.1980 ca         1 E70      -0.133500
     23 CAT          4.3910     8.2530     3.6910 ca         1 E70       0.080100
     24 OAD          4.3900     9.5430     3.2610 oh         1 E70      -0.523100
     25 CAI          3.2280     7.4980     3.6230 ca         1 E70      -0.133500
     26 CAK          3.2310     6.1870     4.0550 ca         1 E70      -0.137500
     27 HAA         -0.3610     0.8860     0.5080 h1         1 E70       0.046367
     28 HAAA        -0.3610    -0.8830     0.5130 h1         1 E70       0.046367
     29 HAAB        -0.3610    -0.0030    -1.0210 h1         1 E70       0.046367
     30 HAL          4.0230     0.0010     0.3780 ha         1 E70       0.147500
     31 HAN          5.1380    -0.0010     2.5750 ha         1 E70       0.151500
     32 HAM          0.2100     0.0100     2.3200 ha         1 E70       0.147500
     33 HAO          1.3330     0.0080     4.5140 ha         1 E70       0.151500
     34 HNAR         5.2500     1.9370     5.8240 hn         1 E70       0.457800
     35 HAG          2.0170     0.8360     6.7930 ha         1 E70       0.195000
     36 HAE          0.0910     2.3600     7.2000 ha         1 E70       0.144000
     37 HAF          0.2640     4.7270     6.5550 h4         1 E70       0.026100
     38 HNAQ         5.2190     3.7420     4.9180 hn         1 E70       0.452800
     39 HAJ          6.4640     5.9450     5.0320 ha         1 E70       0.145000
     40 HAH          6.4610     8.2830     4.2510 ha         1 E70       0.141000
     41 HOAD         4.1640    10.1130     3.9770 ho         1 E70       0.416000
     42 HAI          2.3210     7.9360     3.2240 ha         1 E70       0.141000
     43 HAK          2.3230     5.5980     4.0010 ha         1 E70       0.145000
@<TRIPOS>BOND
     1     1     2 1
     2     2     3 1
     3     3     4 ar
     4     3     6 ar
     5     4     5 ar
     6     5     8 ar
     7     6     7 ar
     8     7     8 ar
     9     8     9 1
    10     9    10 2
    11     9    11 2
    12     9    12 1
    13    12    13 1
    14    13    14 ar
    15    13    18 ar
    16    14    15 ar
    17    15    16 ar
    18    16    17 ar
    19    17    18 ar
    20    18    19 1
    21    19    20 1
    22    20    21 ar
    23    20    26 ar
    24    21    22 ar
    25    22    23 ar
    26    23    24 1
    27    23    25 ar
    28    25    26 ar
    29     1    27 1
    30     1    28 1
    31     1    29 1
    32     4    30 1
    33     5    31 1
    34     6    32 1
    35     7    33 1
    36    12    34 1
    37    14    35 1
    38    15    36 1
    39    16    37 1
    40    19    38 1
    41    21    39 1
    42    22    40 1
    43    24    41 1
    44    25    42 1
    45    26    43 1
@<TRIPOS>SUBSTRUCTURE
     1 E70         1 TEMP              0 ****  ****    0 ROOT
