@<TRIPOS>MOLECULE
E71
   40    44     1     0     0
SMALL
bcc


@<TRIPOS>ATOM
      1 F2          0.3250    0.4240   -0.7490 f         1 E71     -0.124900
      2 C6          1.6400    0.2320   -0.4970 ca        1 E71      0.088900
      3 C1          2.0920    0.1500    0.8490 ca        1 E71      0.090900
      4 F1          1.1900    0.2760    1.8490 f         1 E71     -0.120900
      5 C5          2.5540    0.1140   -1.5550 ca        1 E71     -0.140000
      6 C4          3.9030   -0.0840   -1.2780 ca        1 E71     -0.118000
      7 C3          4.3520   -0.1660    0.0370 ca        1 E71     -0.108000
      8 C2          3.4640   -0.0540    1.1160 ca        1 E71     -0.009000
      9 C7          3.9800   -0.1190    2.4610 cc        1 E71     -0.310600
     10 C9          3.8130   -1.0680    3.4670 cd        1 E71      0.410500
     11 O           4.6030   -0.6490    4.5710 os        1 E71     -0.123100
     12 N1          5.2210    0.4840    4.2850 nd        1 E71     -0.361300
     13 C8          4.8980    0.8620    3.0430 cc        1 E71      0.332200
     14 C10         3.0960   -2.2820    3.6170 cd        1 E71     -0.219000
     15 C16         2.0750   -2.7490    2.7710 cc        1 E71     -0.037100
     16 N3          1.6020   -3.9750    3.2120 na        1 E71     -0.271100
     17 C15         2.3080   -4.3320    4.3750 ca        1 E71      0.419800
     18 C11         3.2650   -3.2730    4.6570 ca        1 E71     -0.167100
     19 N2          2.1590   -5.4580    5.1370 nb        1 E71     -0.662000
     20 C14         2.9740   -5.5330    6.1920 ca        1 E71      0.429200
     21 C13         3.9460   -4.5540    6.5600 cp        1 E71     -0.182300
     22 C12         4.0870   -3.4090    5.7760 ca        1 E71     -0.026000
     23 C17         4.7710   -4.7640    7.7430 cp        1 E71      0.009000
     24 C21         5.1200   -3.6910    8.5760 ca        1 E71     -0.239300
     25 C20         5.9180   -3.9450    9.7060 ca        1 E71      0.395200
     26 N4          6.3710   -5.1680   10.0410 nb        1 E71     -0.663000
     27 C19         6.0310   -6.1900    9.2330 ca        1 E71      0.395200
     28 C18         5.2390   -6.0440    8.0810 ca        1 E71     -0.239300
     29 H4          2.1910    0.1810   -2.5920 ha        1 E71      0.157000
     30 H3          4.6200   -0.1750   -2.1080 ha        1 E71      0.147000
     31 H2          5.4230   -0.3230    0.2430 ha        1 E71      0.151000
     32 H5          5.2720    1.7700    2.5660 h4        1 E71      0.056100
     33 H8          1.6520   -2.2620    1.8860 h4        1 E71      0.185000
     34 H1          0.8720   -4.5010    2.8040 hn        1 E71      0.318700
     35 H7          2.8480   -6.4390    6.8150 h4        1 E71      0.030100
     36 H6          4.8250   -2.6270    6.0210 ha        1 E71      0.165000
     37 H12         4.7760   -2.6710    8.3580 ha        1 E71      0.147000
     38 H11         6.2100   -3.1220   10.3830 h4        1 E71      0.024100
     39 H10         6.4170   -7.1830    9.5260 h4        1 E71      0.024100
     40 H9          5.0040   -6.9150    7.4560 ha        1 E71      0.147000
@<TRIPOS>BOND
     1    1    2 1
     2    2    3 ar
     3    2    5 ar
     4    3    4 1
     5    3    8 ar
     6    5    6 ar
     7    5   29 1
     8    6    7 ar
     9    6   30 1
    10    7    8 ar
    11    7   31 1
    12    8    9 1
    13    9   10 2
    14    9   13 1
    15   10   11 1
    16   10   14 1
    17   11   12 1
    18   12   13 2
    19   13   32 1
    20   14   15 2
    21   14   18 1
    22   15   16 1
    23   15   33 1
    24   16   17 1
    25   16   34 1
    26   17   18 ar
    27   17   19 ar
    28   18   22 ar
    29   19   20 ar
    30   20   21 ar
    31   20   35 1
    32   21   22 ar
    33   21   23 1
    34   22   36 1
    35   23   24 ar
    36   23   28 ar
    37   24   25 ar
    38   24   37 1
    39   25   26 ar
    40   25   38 1
    41   26   27 ar
    42   27   28 ar
    43   27   39 1
    44   28   40 1
@<TRIPOS>SUBSTRUCTURE
     1 E71         1 TEMP              0 ****  ****    0 ROOT
