@<TRIPOS>MOLECULE
E72
   94    96     1     0     0
SMALL
bcc


@<TRIPOS>ATOM
      1 N1          0.4670   -0.2930   -0.4880 nb        1 E72     -0.822000
      2 C2          1.8580   -0.2060   -0.3750 ca        1 E72      0.884900
      3 N3          2.5670   -0.1220    0.7810 nb        1 E72     -0.783000
      4 C4          1.8390   -0.1680    1.9510 ca        1 E72      0.482600
      5 C5          0.4170   -0.2620    1.9670 ca        1 E72     -0.305600
      6 C6         -0.2480   -0.3090    0.6600 ca        1 E72      0.745200
      7 CAA         1.8510   -0.1440    4.3850 ca        1 E72      0.155100
      8 CAB         0.4150   -0.2320    4.3920 ca        1 E72      0.102100
      9 CAC        -0.2750   -0.2890    3.2010 ca        1 E72     -0.149000
     10 CAF         2.5450   -0.1120    3.1980 ca        1 E72     -0.265300
     11 OAK         2.3990   -0.0940    5.6460 os        1 E72     -0.302900
     12 OAL        -0.1460   -0.2560    5.6500 os        1 E72     -0.301900
     13 CAM        -1.5690   -0.2790    5.7060 c3        1 E72      0.106700
     14 NAN        -1.6320   -0.2980    0.6090 nh        1 E72     -0.849900
     15 CAO        -2.4120   -0.4650   -0.6030 c3        1 E72      0.220500
     16 CAP        -3.7710    0.2440   -0.4610 c3        1 E72     -0.096400
     17 CAQ        -4.5900    0.0820   -1.7380 c3        1 E72      0.177800
     18 NAR        -4.7890   -1.3120   -2.1080 n3        1 E72     -0.747600
     19 CAS        -3.5350   -2.0430   -2.2170 c3        1 E72      0.177800
     20 CAT        -2.6660   -1.9370   -0.9670 c3        1 E72     -0.096400
     21 NAU         2.5580   -0.2840   -1.6170 nh        1 E72     -0.816900
     22 CAV         3.8780    0.2970   -1.6790 c3        1 E72      0.202800
     23 CAW         4.4710    0.1990   -3.0930 c3        1 E72     -0.124400
     24 CAX         5.8940    0.7390   -3.0510 c3        1 E72      0.107800
     25 NAY         6.6120    0.6200   -4.3670 n4        1 E72     -0.680400
     26 CAZ         6.1550    1.6530   -5.3330 c3        1 E72      0.081100
     27 CBA         8.0840    0.7060   -4.1700 c3        1 E72      0.081100
     28 CBB         3.8290   -0.0480    5.7360 c3        1 E72      0.129400
     29 CBC         4.1010   -0.0380    7.2330 c3        1 E72     -0.091400
     30 CBD         5.5830    0.0290    7.5260 c3        1 E72     -0.074400
     31 CBE         5.8040    0.0390    9.0290 c3        1 E72     -0.111400
     32 CBF         7.2960    0.1080    9.3310 c3        1 E72      0.100800
     33 NBG         7.5840    0.1220   10.7970 n4        1 E72     -0.839600
     34 CBH        -5.6540   -1.4800   -3.2640 c3        1 E72      0.181800
     35 CBI        -6.5750   -2.6990   -3.1280 c3        1 E72     -0.084400
     36 CBJ        -7.5680   -2.7220   -4.2720 c3        1 E72     -0.079400
     37 CBK        -8.5480   -3.8690   -4.1040 c3        1 E72     -0.109400
     38 CBL        -9.5620   -3.8340   -5.2400 c3        1 E72      0.098800
     39 NBM       -10.5920   -4.9110   -5.1310 n4        1 E72     -0.838600
     40 HAC        -1.3720   -0.3470    3.2330 ha        1 E72      0.142000
     41 HAF         3.6420   -0.0440    3.1830 ha        1 E72      0.153000
     42 HAM        -1.9660   -1.2150    5.2420 h1        1 E72      0.051700
     43 HAMA       -1.7800   -0.2640    6.8060 h1        1 E72      0.051700
     44 HAMB       -2.0000    0.6240    5.2090 h1        1 E72      0.051700
     45 HNAN       -2.1020   -0.5670    1.4440 hn        1 E72      0.429800
     46 HAO        -1.8570    0.0210   -1.4600 h1        1 E72      0.085700
     47 HAP        -4.3390   -0.1770    0.4090 hc        1 E72      0.059700
     48 HAPA       -3.6190    1.3400   -0.2780 hc        1 E72      0.059700
     49 HAQ        -5.6040    0.5430   -1.5660 h1        1 E72      0.036450
     50 HAQA       -4.0850    0.6630   -2.5670 h1        1 E72      0.036450
     51 HAS        -3.7890   -3.1280   -2.3870 h1        1 E72      0.036450
     52 HASA       -2.9290   -1.6920   -3.1050 h1        1 E72      0.036450
     53 HAT        -1.6930   -2.4550   -1.1710 hc        1 E72      0.059700
     54 HATA       -3.1670   -2.4620   -0.1130 hc        1 E72      0.059700
     55 HNAU        1.9820   -0.0520   -2.4030 hn        1 E72      0.413800
     56 HAV         3.8820    1.3820   -1.3640 h1        1 E72      0.060700
     57 HAVA        4.5420   -0.2690   -0.9640 h1        1 E72      0.060700
     58 HAW         3.8450    0.7910   -3.8120 hc        1 E72      0.072700
     59 HAWA        4.4650   -0.8730   -3.4300 hc        1 E72      0.072700
     60 HAX         6.4900    0.1620   -2.2840 hx        1 E72      0.107200
     61 HAXA        5.8920    1.8270   -2.7560 hx        1 E72      0.107200
     62 HAZ         6.4130    2.6740   -4.9440 hx        1 E72      0.108033
     63 HAZA        5.0430    1.5720   -5.4670 hx        1 E72      0.108033
     64 HAZB        6.6650    1.4900   -6.3210 hx        1 E72      0.108033
     65 HBA         8.3400    1.6850   -3.6820 hx        1 E72      0.108033
     66 HBAA        8.4250   -0.1420   -3.5170 hx        1 E72      0.108033
     67 HBAB        8.5960    0.6400   -5.1680 hx        1 E72      0.108033
     68 HBB         4.2720   -0.9500    5.2410 h1        1 E72      0.045700
     69 HBBA        4.2100    0.8830    5.2410 h1        1 E72      0.045700
     70 HBC         3.5740    0.8410    7.6910 hc        1 E72      0.071700
     71 HBCA        3.6560   -0.9630    7.6880 hc        1 E72      0.071700
     72 HBD         6.0220    0.9550    7.0700 hc        1 E72      0.056700
     73 HBDA        6.1040   -0.8540    7.0700 hc        1 E72      0.056700
     74 HBE         5.2740    0.9230    9.4750 hc        1 E72      0.074700
     75 HBEA        5.3570   -0.8900    9.4750 hc        1 E72      0.074700
     76 HBF         7.7390    1.0460    8.8860 hx        1 E72      0.113200
     77 HBFA        7.8230   -0.7870    8.8880 hx        1 E72      0.113200
     78 HNBG        7.2150   -0.7270   11.2380 hn        1 E72      0.465133
     79 HNBA        7.1390    0.9360   11.2360 hn        1 E72      0.465133
     80 HBH        -5.0610   -1.5890   -4.2190 h1        1 E72      0.037200
     81 HBHA       -6.3040   -0.5650   -3.3790 h1        1 E72      0.037200
     82 HBI        -5.9670   -3.6400   -3.1300 hc        1 E72      0.058200
     83 HBIA       -7.1230   -2.6540   -2.1500 hc        1 E72      0.058200
     84 HBJ        -7.0220   -2.8280   -5.2460 hc        1 E72      0.057200
     85 HBJA       -8.1290   -1.7500   -4.3040 hc        1 E72      0.057200
     86 HBK        -7.9880   -4.8420   -4.1060 hc        1 E72      0.071200
     87 HBKA       -9.0660   -3.7720   -3.1120 hc        1 E72      0.071200
     88 HBL       -10.1050   -2.8430   -5.2430 hx        1 E72      0.114700
     89 HBLA       -9.0380   -3.9620   -6.2310 hx        1 E72      0.114700
     90 HNBM      -10.1430   -5.8320   -5.1460 hn        1 E72      0.464133
     91 HNBB      -11.2510   -4.8480   -5.9140 hn        1 E72      0.464133
     92 HAY1        6.3930   -0.3060   -4.7620 hn        1 E72      0.452800
     93 HBG3        8.5960    0.1690   10.9560 hn        1 E72      0.465133
     94 HBM3      -11.1100   -4.8160   -4.2500 hn        1 E72      0.464133
@<TRIPOS>BOND
     1    1    2 ar  
     2    1    6 ar  
     3    2    3 ar  
     4    2   21 1   
     5    3    4 ar  
     6    4    5 ar  
     7    4   10 ar  
     8    5    6 ar  
     9    5    9 ar  
    10    6   14 1   
    11    7    8 ar  
    12    7   10 ar  
    13    7   11 1   
    14    8    9 ar  
    15    8   12 1   
    16    9   40 1   
    17   10   41 1   
    18   11   28 1   
    19   12   13 1   
    20   13   42 1   
    21   13   43 1   
    22   13   44 1   
    23   14   15 1   
    24   14   45 1   
    25   15   16 1   
    26   15   20 1   
    27   15   46 1   
    28   16   17 1   
    29   16   47 1   
    30   16   48 1   
    31   17   18 1   
    32   17   49 1   
    33   17   50 1   
    34   18   19 1   
    35   18   34 1   
    36   19   20 1   
    37   19   51 1   
    38   19   52 1   
    39   20   53 1   
    40   20   54 1   
    41   21   22 1   
    42   21   55 1   
    43   22   23 1   
    44   22   56 1   
    45   22   57 1   
    46   23   24 1   
    47   23   58 1   
    48   23   59 1   
    49   24   25 1   
    50   24   60 1   
    51   24   61 1   
    52   25   26 1   
    53   25   27 1   
    54   25   92 1   
    55   26   62 1   
    56   26   63 1   
    57   26   64 1   
    58   27   65 1   
    59   27   66 1   
    60   27   67 1   
    61   28   29 1   
    62   28   68 1   
    63   28   69 1   
    64   29   30 1   
    65   29   70 1   
    66   29   71 1   
    67   30   31 1   
    68   30   72 1   
    69   30   73 1   
    70   31   32 1   
    71   31   74 1   
    72   31   75 1   
    73   32   33 1   
    74   32   76 1   
    75   32   77 1   
    76   33   78 1   
    77   33   79 1   
    78   33   93 1   
    79   34   35 1   
    80   34   80 1   
    81   34   81 1   
    82   35   36 1   
    83   35   82 1   
    84   35   83 1   
    85   36   37 1   
    86   36   84 1   
    87   36   85 1   
    88   37   38 1   
    89   37   86 1   
    90   37   87 1   
    91   38   39 1   
    92   38   88 1   
    93   38   89 1   
    94   39   90 1   
    95   39   91 1   
    96   39   94 1   
@<TRIPOS>SUBSTRUCTURE
     1 E72         1 TEMP              0 ****  ****    0 ROOT
