@<TRIPOS>MOLECULE
E75
   48    51     1     0     0
SMALL
bcc


@<TRIPOS>ATOM
      1 O2         -0.0820    0.3950   -0.5340 oh        1 E75     -0.597800
      2 C10         1.3330    0.2600   -0.5450 c3        1 E75      0.139100
      3 C9          1.8430   -0.2830    0.7860 c3        1 E75     -0.092900
      4 C8          3.3540   -0.2960    0.8260 c3        1 E75     -0.092900
      5 C11         1.8990    1.6500   -0.8180 c3        1 E75     -0.092900
      6 C12         3.4100    1.6320   -0.7710 c3        1 E75     -0.092900
      7 C7          3.9050    1.1250    0.5950 c3        1 E75      0.206500
      8 N4          5.3510    1.1320    0.7400 nh        1 E75     -0.815900
      9 C4          6.0560    2.3460    0.8170 ca        1 E75      0.868900
     10 N2          7.4060    2.2950    0.4810 nb        1 E75     -0.738000
     11 N3          5.4030    3.4830    1.2880 nb        1 E75     -0.740000
     12 C5          6.1660    4.5700    1.4620 ca        1 E75      0.463200
     13 C6          7.5420    4.6090    1.1840 ca        1 E75     -0.422600
     14 C3          8.1260    3.4220    0.6800 ca        1 E75      0.563800
     15 C2          9.5390    3.4210    0.3430 cc        1 E75     -0.384100
     16 C13        10.2820    4.4710   -0.1810 cd        1 E75      0.296000
     17 C14        10.0210    5.8610   -0.5490 c3        1 E75     -0.146400
     18 O1         11.5960    4.0000   -0.3860 os        1 E75     -0.115100
     19 C1         10.4980    2.3090    0.4390 cc        1 E75      0.414800
     20 N1         11.6960    2.7400   -0.0130 nd        1 E75     -0.359300
     21 C15        10.2420    0.9680    0.9460 ca        1 E75     -0.126500
     22 C20        10.6760   -0.1490    0.2180 ca        1 E75     -0.091000
     23 C19        10.4410   -1.4330    0.7090 ca        1 E75     -0.137000
     24 C18         9.7820   -1.6090    1.9260 ca        1 E75     -0.118000
     25 C17         9.3550   -0.4980    2.6540 ca        1 E75     -0.137000
     26 C16         9.5830    0.7880    2.1690 ca        1 E75     -0.091000
     27 H10        -0.4420   -0.4690   -0.3010 ho        1 E75      0.399000
     28 H9          1.6290   -0.4430   -1.3760 h1        1 E75      0.031700
     29 H8          1.4570   -1.3240    0.9390 hc        1 E75      0.055450
     30 H7          1.4400    0.3520    1.6180 hc        1 E75      0.055450
     31 H6          3.7470   -0.9910    0.0390 hc        1 E75      0.049950
     32 H5          3.6960   -0.6800    1.8230 hc        1 E75      0.049950
     33 H12         1.4940    2.3660   -0.0570 hc        1 E75      0.055450
     34 H11         1.5510    1.9970   -1.8250 hc        1 E75      0.055450
     35 H14         3.7940    2.6700   -0.9510 hc        1 E75      0.049950
     36 H13         3.8070    0.9740   -1.5870 hc        1 E75      0.049950
     37 H4          3.4720    1.7950    1.3970 h1        1 E75      0.089700
     38 H3          5.8170    0.4160    0.2190 hn        1 E75      0.424800
     39 H1          5.6380    5.4630    1.8460 h4        1 E75      0.027100
     40 H2          8.1380    5.5120    1.3510 ha        1 E75      0.153000
     41 H16         8.9560    5.9750   -0.8740 hc        1 E75      0.070700
     42 H15        10.6970    6.1820   -1.3810 hc        1 E75      0.070700
     43 H17        10.2020    6.5290    0.3320 hc        1 E75      0.070700
     44 H22        11.2010   -0.0120   -0.7390 ha        1 E75      0.140000
     45 H21        10.7800   -2.3070    0.1350 ha        1 E75      0.133500
     46 H20         9.6010   -2.6230    2.3120 ha        1 E75      0.131000
     47 H19         8.8360   -0.6350    3.6140 ha        1 E75      0.133500
     48 H18         9.2420    1.6630    2.7420 ha        1 E75      0.140000
@<TRIPOS>BOND
     1    1    2 1   
     2    1   27 1   
     3    2    3 1   
     4    2    5 1   
     5    2   28 1   
     6    3    4 1   
     7    3   29 1   
     8    3   30 1   
     9    4    7 1   
    10    4   31 1   
    11    4   32 1   
    12    5    6 1   
    13    5   33 1   
    14    5   34 1   
    15    6    7 1   
    16    6   35 1   
    17    6   36 1   
    18    7    8 1   
    19    7   37 1   
    20    8    9 1   
    21    8   38 1   
    22    9   10 ar  
    23    9   11 ar  
    24   10   14 ar  
    25   11   12 ar  
    26   12   13 ar  
    27   12   39 1   
    28   13   14 ar  
    29   13   40 1   
    30   14   15 1   
    31   15   16 2   
    32   15   19 1   
    33   16   17 1   
    34   16   18 1   
    35   17   41 1   
    36   17   42 1   
    37   17   43 1   
    38   18   20 1   
    39   19   20 2   
    40   19   21 1   
    41   21   22 ar  
    42   21   26 ar  
    43   22   23 ar  
    44   22   44 1   
    45   23   24 ar  
    46   23   45 1   
    47   24   25 ar  
    48   24   46 1   
    49   25   26 ar  
    50   25   47 1   
    51   26   48 1   
@<TRIPOS>SUBSTRUCTURE
     1 E75         1 TEMP              0 ****  ****    0 ROOT
