@<TRIPOS>MOLECULE
molecule
   49    52     1     0     0
SMALL
bcc


@<TRIPOS>ATOM
      1 C1           0.0000     0.0000     0.0000 ca         1 E78      -0.112000
      2 C2           2.0970     0.0000     1.2130 ca         1 E78      -0.133000
      3 C3           1.4000     0.0000     0.0000 ca         1 E78       0.035000
      4 C7           2.1390     0.0000    -1.2760 cc         1 E78      -0.134400
      5 C8           1.9000    -0.8060    -2.3340 cd         1 E78       0.424600
      6 C9           3.6030     0.3180    -3.2320 cc         1 E78       0.575300
      7 C10         -0.9710     0.0100     3.4900 c          1 E78       0.718100
      8 C11          4.5300     0.0150    -5.3890 c          1 E78       0.643100
      9 C12         -2.1450     0.0120     1.5270 c3         1 E78       0.144300
     10 C13         -4.7040     1.4630     5.5720 cx         1 E78      -0.131400
     11 C14         -3.3530     1.0750     6.1760 cx         1 E78      -0.131400
     12 C15         -3.4880     1.2720     4.6640 cx         1 E78      -0.152700
     13 C19         -3.4970    -1.2270     4.6690 c3         1 E78      -0.117100
     14 C20         -3.4520     0.0200     3.7840 c3         1 E78       0.180700
     15 N23          4.5280     0.6600    -4.2070 ns         1 E78      -0.534400
     16 C4           0.0160     0.0040     2.3970 ca         1 E78      -0.164600
     17 C5          -0.6770     0.0050     1.1810 ca         1 E78      -0.085300
     18 C6           1.4150    -0.0020     2.3960 ca         1 E78      -0.005300
     19 C17          0.8080    -1.8440    -2.3400 c3         1 E78      -0.119400
     20 C18          5.5350     0.3860    -6.4490 c3         1 E78      -0.169100
     21 N21          2.7000    -0.6070    -3.3580 nd         1 E78      -0.683000
     22 N22         -2.2200     0.0150     2.9930 n          1 E78      -0.489800
     23 O24         -0.6950     0.0110     4.6740 o          1 E78      -0.630500
     24 O25          3.7240    -0.8670    -5.6020 o          1 E78      -0.525100
     25 S26          3.4850     1.0580    -1.6950 ss         1 E78      -0.216300
     26 H1          -0.5430     0.0000    -0.9370 ha         1 E78       0.140000
     27 H2           3.1800     0.0000     1.2130 ha         1 E78       0.143000
     28 H3          -2.6170     0.9030     1.1300 h1         1 E78       0.059700
     29 H4          -2.6230    -0.8770     1.1330 h1         1 E78       0.059700
     30 H5          -5.4440     0.6720     5.5360 hc         1 E78       0.076450
     31 H6          -5.0110     2.4890     5.7330 hc         1 E78       0.076450
     32 H7          -3.2670     0.0480     6.5080 hc         1 E78       0.076450
     33 H8          -2.8340     1.8650     6.7050 hc         1 E78       0.076450
     34 H9          -3.0550     2.1900     4.2860 hc         1 E78       0.088700
     35 H10          1.8550     0.8420     4.3010 hc         1 E78       0.053700
     36 H11          1.9650    -0.9230     4.2350 hc         1 E78       0.053700
     37 H12          3.2330     0.0710     3.5020 hc         1 E78       0.053700
     38 H13         -3.4300    -2.1120     4.0490 hc         1 E78       0.051367
     39 H14         -2.6640    -1.2080     5.3620 hc         1 E78       0.051367
     40 H15         -4.4270    -1.2430     5.2230 hc         1 E78       0.051367
     41 H16         -4.3080     0.0220     3.1200 h1         1 E78       0.059700
     42 H17          5.2050     1.3750    -4.0260 hn         1 E78       0.334500
     43 H18         -0.1450    -1.3650    -2.5270 hc         1 E78       0.055367
     44 H19          0.7790    -2.3430    -1.3780 hc         1 E78       0.055367
     45 H20          1.0060    -2.5720    -3.1180 hc         1 E78       0.055367
     46 H21          6.5350     0.3030    -6.0430 hc         1 E78       0.064700
     47 H22          5.4320    -0.2830    -7.2950 hc         1 E78       0.064700
     48 H23          5.3590     1.4050    -6.7720 hc         1 E78       0.064700
     49 C16          2.1700    -0.0030     3.7000 c3         1 E78      -0.050800
@<TRIPOS>BOND
     1    49    18 1
     2    23     7 2
     3    18     2 ar
     4    18    16 ar
     5    10    11 1
     6    10    12 1
     7     7    16 1
     8     7    22 1
     9     2     3 ar
    10    16    17 ar
    11    11    12 1
    12    14    22 1
    13    14    12 1
    14    14    13 1
    15    22     9 1
    16    24     8 2
    17    17     9 1
    18    17     1 ar
    19     3     1 ar
    20     3     4 1
    21    25     4 1
    22    25     6 1
    23     4     5 2
    24     8    20 1
    25     8    15 1
    26     6    15 1
    27     6    21 2
    28     5    21 1
    29     5    19 1
    30     1    26 1
    31     2    27 1
    32     9    28 1
    33     9    29 1
    34    10    30 1
    35    10    31 1
    36    11    32 1
    37    11    33 1
    38    12    34 1
    39    49    35 1
    40    49    36 1
    41    49    37 1
    42    13    38 1
    43    13    39 1
    44    13    40 1
    45    14    41 1
    46    15    42 1
    47    19    43 1
    48    19    44 1
    49    19    45 1
    50    20    46 1
    51    20    47 1
    52    20    48 1
@<TRIPOS>SUBSTRUCTURE
     1 E78         1 TEMP              0 ****  ****    0 ROOT
