@<TRIPOS>MOLECULE
molecule
   41    43     1     0     0
SMALL
bcc


@<TRIPOS>ATOM
      1 C1           0.0000     0.0000     0.0000 ca         1 E7E      -0.107000
      2 C2           1.3860     0.0000     0.0000 ca         1 E7E      -0.061000
      3 C3           2.0930     0.0000     1.1830 ca         1 E7E      -0.119000
      4 C16         -4.2440    -0.0970     0.0330 ca         1 E7E       0.065600
      5 C17         -4.9860     0.5130     1.0370 ca         1 E7E      -0.111000
      6 C18         -7.0050    -0.2900     0.0310 ca         1 E7E      -0.110000
      7 C19         -6.2700    -0.8940    -0.9730 ca         1 E7E      -0.089000
      8 C20         -6.3630     0.4150     1.0330 ca         1 E7E      -0.179300
      9 C21         -4.8920    -0.8000    -0.9740 ca         1 E7E      -0.105000
     10 C22         -7.1680     1.0760     2.1210 c3         1 E7E       0.161100
     11 C4          -0.7000     0.0080     1.2000 ca         1 E7E      -0.083600
     12 C5           0.0130     0.0140     2.4210 ca         1 E7E      -0.099800
     13 C6           1.4200     0.0010     2.4020 ca         1 E7E       0.015800
     14 N7           1.8470     0.0110     3.7100 na         1 E7E      -0.195400
     15 C8           0.7440     0.0290     4.5370 cc         1 E7E      -0.230300
     16 C9          -0.3830     0.0110     3.7760 cd         1 E7E       0.019800
     17 C10          0.7820     0.0330     6.0090 c          1 E7E       0.524300
     18 N11          1.9650     0.0530     6.6540 nz         1 E7E      -0.681400
     19 O12         -0.2560     0.0190     6.6430 o          1 E7E      -0.411100
     20 O14         -2.7830     0.0140     2.2540 o          1 E7E      -0.608100
     21 N15         -2.8500     0.0010     0.0340 ns         1 E7E      -0.470100
     22 N23         -7.5100     2.4460     1.7140 nz         1 E7E      -0.811600
     23 H1          -0.5400    -0.0000    -0.9390 ha         1 E7E       0.145000
     24 H2           1.9200    -0.0060    -0.9420 ha         1 E7E       0.169000
     25 H3           3.1760    -0.0000     1.1650 ha         1 E7E       0.157000
     26 H4          -4.4840     1.0640     1.8230 ha         1 E7E       0.164000
     27 H5          -8.0850    -0.3660     0.0300 ha         1 E7E       0.143000
     28 H6          -6.7760    -1.4450    -1.7570 ha         1 E7E       0.169000
     29 H7          -4.3170    -1.2760    -1.7600 ha         1 E7E       0.161000
     30 H8          -6.5860     1.1060     3.0340 hx         1 E7E       0.115700
     31 H9          -8.0770     0.5130     2.2900 hx         1 E7E       0.115700
     32 H10          2.8020     0.0180     4.0110 hn         1 E7E       0.298700
     33 H11         -1.4020     0.0190     4.1430 ha         1 E7E       0.206000
     34 H12          1.8060     0.0640     7.6420 hn         1 E7E       0.479800
     35 H13          2.4910    -0.7630     6.4100 hn         1 E7E       0.479800
     36 H14         -2.3560     0.1150    -0.8300 hn         1 E7E       0.344500
     37 H15         -7.8730     2.9470     2.5000 hn         1 E7E       0.456133
     38 H16         -6.6890     2.9080     1.3750 hn         1 E7E       0.456133
     39 C13         -2.1760     0.0080     1.2010 c          1 E7E       0.686700
     40 H113         2.4840     0.8610     6.3730 hn         1 E7E       0.479800
     41 H233        -8.2040     2.4170     0.9930 hn         1 E7E       0.456133
@<TRIPOS>BOND
     1    19    17 2
     2    18    17 1
     3    17    15 1
     4    10     8 1
     5    10    22 1
     6    15    16 2
     7    15    14 1
     8     8     5 ar
     9     8     6 ar
    10    16    12 1
    11     5     4 ar
    12    14    13 1
    13     6     7 ar
    14    12    13 ar
    15    12    11 ar
    16     4    21 1
    17     4     9 ar
    18    13     3 ar
    19    21    39 1
    20    39    11 1
    21    39    20 2
    22    11     1 ar
    23     7     9 ar
    24     3     2 ar
    25     1     2 ar
    26     1    23 1
    27     2    24 1
    28     3    25 1
    29     5    26 1
    30     6    27 1
    31     7    28 1
    32     9    29 1
    33    10    30 1
    34    10    31 1
    35    14    32 1
    36    16    33 1
    37    18    34 1
    38    18    35 1
    39    21    36 1
    40    22    37 1
    41    22    38 1
    42    40    18 1
    43    41    22 1
@<TRIPOS>SUBSTRUCTURE
     1 E7E         1 TEMP              0 ****  ****    0 ROOT
