@<TRIPOS>MOLECULE
E7E
   41    43     1     0     0
SMALL
bcc


@<TRIPOS>ATOM
      1 C1           0.0000     0.0000     0.0000 ca         1 E7E      -0.081000
      2 C2           1.3860     0.0000     0.0000 ca         1 E7E      -0.030000
      3 C3           2.0930     0.0000     1.1830 ca         1 E7E      -0.076000
      4 C16         -4.2440    -0.0970     0.0330 ca         1 E7E      -0.078400
      5 C17         -4.9860     0.5130     1.0370 ca         1 E7E      -0.085000
      6 C18         -7.0050    -0.2900     0.0310 ca         1 E7E      -0.075000
      7 C19         -6.2700    -0.8940    -0.9730 ca         1 E7E      -0.053000
      8 C20         -6.3630     0.4150     1.0330 ca         1 E7E      -0.191300
      9 C21         -4.8920    -0.8000    -0.9740 ca         1 E7E      -0.069000
     10 C22         -7.1680     1.0760     2.1210 c3         1 E7E       0.038100
     11 C4          -0.7000     0.0080     1.2000 ca         1 E7E      -0.086600
     12 C5           0.0130     0.0140     2.4210 ca         1 E7E      -0.097800
     13 C6           1.4200     0.0010     2.4020 ca         1 E7E      -0.171200
     14 N7           1.8470     0.0110     3.7100 na         1 E7E       0.345600
     15 C8           0.7440     0.0290     4.5370 cc         1 E7E      -0.437300
     16 C9          -0.3830     0.0110     3.7760 cd         1 E7E       0.066800
     17 C10          0.7820     0.0330     6.0090 c          1 E7E       0.379300
     18 N11          1.9650     0.0530     6.6540 nz         1 E7E       0.202600
     19 O12         -0.2560     0.0190     6.6430 o          1 E7E      -0.426100
     20 O14         -2.7830     0.0140     2.2540 o          1 E7E      -0.654100
     21 N15         -2.8500     0.0010     0.0340 ns         1 E7E      -0.027100
     22 N23         -7.5100     2.4460     1.7140 nz         1 E7E       0.075400
     23 H1          -0.5400    -0.0000    -0.9390 ha         1 E7E       0.115000
     24 H2           1.9200    -0.0060    -0.9420 ha         1 E7E       0.128000
     25 H3           3.1760    -0.0000     1.1650 ha         1 E7E       0.122000
     26 H4          -4.4840     1.0640     1.8230 ha         1 E7E       0.145000
     27 H5          -8.0850    -0.3660     0.0300 ha         1 E7E       0.114000
     28 H6          -6.7760    -1.4450    -1.7570 ha         1 E7E       0.132000
     29 H7          -4.3170    -1.2760    -1.7600 ha         1 E7E       0.127000
     30 H8          -6.5860     1.1060     3.0340 hx         1 E7E       0.084700
     31 H9          -8.0770     0.5130     2.2900 hx         1 E7E       0.084700
     32 H10          2.8020     0.0180     4.0110 hn         1 E7E       0.111700
     33 H11         -1.4020     0.0190     4.1430 ha         1 E7E       0.170000
     34 H12          1.8060     0.0640     7.6420 hn         1 E7E       0.246467
     35 H13          2.4910    -0.7630     6.4100 hn         1 E7E       0.246467
     36 H14         -2.3560     0.1150    -0.8300 hn         1 E7E       0.189500
     37 H15         -7.8730     2.9470     2.5000 hn         1 E7E       0.223800
     38 H16         -6.6890     2.9080     1.3750 hn         1 E7E       0.223800
     39 C13         -2.1760     0.0080     1.2010 c          1 E7E       0.597700
     40 H113         2.4840     0.8610     6.3730 hn         1 E7E       0.246467
     41 H233        -8.2040     2.4170     0.9930 hn         1 E7E       0.223800
@<TRIPOS>BOND
     1     1     2 ar  
     2     1    11 ar  
     3     1    23 1   
     4     2     3 ar  
     5     2    24 1   
     6     3    13 ar  
     7     3    25 1   
     8     4     5 ar  
     9     4     9 ar  
    10     4    21 1   
    11     5     8 ar  
    12     5    26 1   
    13     6     7 ar  
    14     6     8 ar  
    15     6    27 1   
    16     7     9 ar  
    17     7    28 1   
    18     8    10 1   
    19     9    29 1   
    20    10    22 1   
    21    10    30 1   
    22    10    31 1   
    23    11    12 ar  
    24    11    39 1   
    25    12    13 ar  
    26    12    16 1   
    27    13    14 1   
    28    14    15 1   
    29    14    32 1   
    30    15    16 2   
    31    15    17 1   
    32    16    33 1   
    33    17    18 1   
    34    17    19 2   
    35    18    34 1   
    36    18    35 1   
    37    18    40 1   
    38    20    39 2   
    39    21    36 1   
    40    21    39 1   
    41    22    37 1   
    42    22    38 1   
    43    22    41 1   
@<TRIPOS>SUBSTRUCTURE
     1 E7E         1 TEMP              0 ****  ****    0 ROOT
