@<TRIPOS>MOLECULE
E7H
   52    56     1     0     0
SMALL
bcc


@<TRIPOS>ATOM
      1 C1           0.0000     0.0000     0.0000 c3         1 E7H      -0.027700
      2 C2           1.5300     1.2490     2.1640 c3         1 E7H      -0.002400
      3 C3           2.0400     0.0000     1.4430 c3         1 E7H      -0.128000
      4 C11          3.5480    -0.0010     1.4430 c          1 E7H       0.571100
      5 C15          6.3520    -0.3900     1.7930 ca         1 E7H      -0.118000
      6 C16          7.7360    -0.3440     1.7160 ca         1 E7H       0.008000
      7 C17          8.3980    -0.8630     0.6250 ca         1 E7H      -0.127000
      8 C18          5.6130    -0.9660     0.7760 ca         1 E7H      -0.029400
      9 C19          6.2750    -1.5060    -0.3410 ca         1 E7H      -0.165800
     10 C20          7.6790    -1.4440    -0.4170 ca         1 E7H      -0.139200
     11 C22          6.9180    -2.4640    -2.2610 cc         1 E7H      -0.432300
     12 C23          5.8240    -2.1460    -1.5180 cd         1 E7H       0.042800
     13 C24          6.8950    -3.1480    -3.5620 c          1 E7H       0.380300
     14 C4           1.5300    -1.2500     2.1640 c3         1 E7H      -0.018900
     15 C5          -0.0000    -1.2500     2.1640 c3         1 E7H      -0.027700
     16 C6          -0.5100    -0.0010     2.8850 c3         1 E7H      -0.019400
     17 C7          -0.0000     1.2490     2.1640 c3         1 E7H      -0.099800
     18 C8           1.5310     0.0000     0.0000 c3         1 E7H      -0.018900
     19 C9          -0.5100    -1.2490     0.7210 c3         1 E7H      -0.026400
     20 C10         -0.5100     1.2490     0.7210 c3         1 E7H      -0.019400
     21 N12          4.2210    -1.0120     0.8590 ns         1 E7H      -0.017100
     22 O13          4.1540     0.9090     1.9680 o          1 E7H      -0.617100
     23 N14         -0.4900     2.4480     2.8570 nz         1 E7H       0.076400
     24 N21          8.0540    -2.0380    -1.5990 na         1 E7H       0.346600
     25 N25          8.0500    -3.4070    -4.2080 nz         1 E7H       0.203600
     26 O26          5.8340    -3.4790    -4.0570 o          1 E7H      -0.434100
     27 H1          -0.3610     0.0000    -1.0210 hc         1 E7H       0.060700
     28 H2           1.8920     2.1330     1.6540 hc         1 E7H       0.049700
     29 H3           1.8920     1.2480     3.1860 hc         1 E7H       0.049700
     30 H6           9.4790    -0.8200     0.5770 ha         1 E7H       0.122000
     31 H7           4.8010    -2.4210    -1.7420 ha         1 E7H       0.139000
     32 H8           1.8920    -2.1340     1.6530 hc         1 E7H       0.034200
     33 H9           1.8920    -1.2510     3.1850 hc         1 E7H       0.034200
     34 H10         -0.3620    -2.1350     2.6740 hc         1 E7H       0.060700
     35 H11         -0.1490    -0.0010     3.9060 hc         1 E7H       0.038200
     36 H12         -1.5930    -0.0010     2.8850 hc         1 E7H       0.038200
     37 H13          1.8920     0.8850    -0.5110 hc         1 E7H       0.034200
     38 H14          1.8920    -0.8850    -0.5110 hc         1 E7H       0.034200
     39 H15         -0.1480    -2.1340     0.2100 hc         1 E7H       0.038700
     40 H16         -1.5930    -1.2500     0.7200 hc         1 E7H       0.038700
     41 H17         -1.5930     1.2490     0.7210 hc         1 E7H       0.038200
     42 H18         -0.1480     2.1330     0.2110 hc         1 E7H       0.038200
     43 H19          3.7270    -1.8160     0.5280 hn         1 E7H       0.177500
     44 H20         -1.4900     2.4480     2.8570 hn         1 E7H       0.227467
     45 H21         -0.1560     3.2650     2.3850 hn         1 E7H       0.227467
     46 H23          8.9940    -2.1470    -1.9240 hn         1 E7H       0.112700
     47 H24          7.8520    -3.8730    -5.0710 hn         1 E7H       0.246133
     48 H25          8.6270    -3.9920    -3.6370 hn         1 E7H       0.246133
     49 H4           5.8460     0.0230     2.6580 ha         1 E7H       0.157000
     50 H143        -0.1680     2.4410     3.8040 hn         1 E7H       0.227467
     51 H253         8.5360    -2.5490    -4.3790 hn         1 E7H       0.246133
     52 H5           8.3030     0.1100     2.5200 ha         1 E7H       0.125000
@<TRIPOS>BOND
     1     1    18 1   
     2     1    19 1   
     3     1    20 1   
     4     1    27 1   
     5     2     3 1   
     6     2    17 1   
     7     2    28 1   
     8     2    29 1   
     9     3     4 1   
    10     3    14 1   
    11     3    18 1   
    12     4    21 1   
    13     4    22 2   
    14     5     6 ar  
    15     5     8 ar  
    16     5    49 1   
    17     6     7 ar  
    18     6    52 1   
    19     7    10 ar  
    20     7    30 1   
    21     8     9 ar  
    22     8    21 1   
    23     9    10 ar  
    24     9    12 1   
    25    10    24 1   
    26    11    12 2   
    27    11    13 1   
    28    11    24 1   
    29    12    31 1   
    30    13    25 1   
    31    13    26 2   
    32    14    15 1   
    33    14    32 1   
    34    14    33 1   
    35    15    16 1   
    36    15    19 1   
    37    15    34 1   
    38    16    17 1   
    39    16    35 1   
    40    16    36 1   
    41    17    20 1   
    42    17    23 1   
    43    18    37 1   
    44    18    38 1   
    45    19    39 1   
    46    19    40 1   
    47    20    41 1   
    48    20    42 1   
    49    21    43 1   
    50    23    44 1   
    51    23    45 1   
    52    23    50 1   
    53    24    46 1   
    54    25    47 1   
    55    25    48 1   
    56    25    51 1   
@<TRIPOS>SUBSTRUCTURE
     1 E7H         1 TEMP              0 ****  ****    0 ROOT
