@<TRIPOS>MOLECULE
molecule
   52    56     1     0     0
SMALL
bcc


@<TRIPOS>ATOM
      1 C1           0.0000     0.0000     0.0000 c3         1 E7H      -0.055200
      2 C2           1.5300     1.2490     2.1640 c3         1 E7H      -0.067400
      3 C3           2.0400     0.0000     1.4430 c3         1 E7H      -0.124000
      4 C11          3.5480    -0.0010     1.4430 c          1 E7H       0.671100
      5 C15          6.3520    -0.3900     1.7930 ca         1 E7H      -0.148000
      6 C16          7.7360    -0.3440     1.7160 ca         1 E7H      -0.026000
      7 C17          8.3980    -0.8630     0.6250 ca         1 E7H      -0.170000
      8 C18          5.6130    -0.9660     0.7760 ca         1 E7H       0.115600
      9 C19          6.2750    -1.5060    -0.3410 ca         1 E7H      -0.168800
     10 C20          7.6790    -1.4440    -0.4170 ca         1 E7H       0.044800
     11 C22          6.9180    -2.4640    -2.2610 cc         1 E7H      -0.230300
     12 C23          5.8240    -2.1460    -1.5180 cd         1 E7H       0.000800
     13 C24          6.8950    -3.1480    -3.5620 c          1 E7H       0.525300
     14 C4           1.5300    -1.2500     2.1640 c3         1 E7H      -0.074400
     15 C5          -0.0000    -1.2500     2.1640 c3         1 E7H      -0.055200
     16 C6          -0.5100    -0.0010     2.8850 c3         1 E7H      -0.088400
     17 C7          -0.0000     1.2490     2.1640 c3         1 E7H       0.106200
     18 C8           1.5310     0.0000     0.0000 c3         1 E7H      -0.074400
     19 C9          -0.5100    -1.2490     0.7210 c3         1 E7H      -0.082400
     20 C10         -0.5100     1.2490     0.7210 c3         1 E7H      -0.088400
     21 N12          4.2210    -1.0120     0.8590 ns         1 E7H      -0.468100
     22 O13          4.1540     0.9090     1.9680 o          1 E7H      -0.575100
     23 N14         -0.4900     2.4480     2.8570 nz         1 E7H      -0.805600
     24 N21          8.0540    -2.0380    -1.5990 na         1 E7H      -0.195400
     25 N25          8.0500    -3.4070    -4.2080 nz         1 E7H      -0.680400
     26 O26          5.8340    -3.4790    -4.0570 o          1 E7H      -0.420100
     27 H1          -0.3610     0.0000    -1.0210 hc         1 E7H       0.093200
     28 H2           1.8920     2.1330     1.6540 hc         1 E7H       0.078700
     29 H3           1.8920     1.2480     3.1860 hc         1 E7H       0.078700
     30 H6           9.4790    -0.8200     0.5770 ha         1 E7H       0.153000
     31 H7           4.8010    -2.4210    -1.7420 ha         1 E7H       0.175000
     32 H8           1.8920    -2.1340     1.6530 hc         1 E7H       0.064950
     33 H9           1.8920    -1.2510     3.1850 hc         1 E7H       0.064950
     34 H10         -0.3620    -2.1350     2.6740 hc         1 E7H       0.093200
     35 H11         -0.1490    -0.0010     3.9060 hc         1 E7H       0.067950
     36 H12         -1.5930    -0.0010     2.8850 hc         1 E7H       0.067950
     37 H13          1.8920     0.8850    -0.5110 hc         1 E7H       0.064950
     38 H14          1.8920    -0.8850    -0.5110 hc         1 E7H       0.064950
     39 H15         -0.1480    -2.1340     0.2100 hc         1 E7H       0.069700
     40 H16         -1.5930    -1.2500     0.7200 hc         1 E7H       0.069700
     41 H17         -1.5930     1.2490     0.7210 hc         1 E7H       0.067950
     42 H18         -0.1480     2.1330     0.2110 hc         1 E7H       0.067950
     43 H19          3.7270    -1.8160     0.5280 hn         1 E7H       0.333500
     44 H20         -1.4900     2.4480     2.8570 hn         1 E7H       0.455467
     45 H21         -0.1560     3.2650     2.3850 hn         1 E7H       0.455467
     46 H23          8.9940    -2.1470    -1.9240 hn         1 E7H       0.298700
     47 H24          7.8520    -3.8730    -5.0710 hn         1 E7H       0.479467
     48 H25          8.6270    -3.9920    -3.6370 hn         1 E7H       0.479467
     49 H4           5.8460     0.0230     2.6580 ha         1 E7H       0.182000
     50 H143        -0.1680     2.4410     3.8040 hn         1 E7H       0.455467
     51 H253         8.5360    -2.5490    -4.3790 hn         1 E7H       0.479467
     52 H5           8.3030     0.1100     2.5200 ha         1 E7H       0.167000
@<TRIPOS>BOND
     1    23    17 1
     2    16    17 1
     3    16    15 1
     4    17     2 1
     5    17    20 1
     6     2     3 1
     7    15    14 1
     8    15    19 1
     9    25    13 1
    10    14     3 1
    11    20     1 1
    12    13    11 1
    13    13    26 2
    14    12    11 2
    15    12     9 1
    16    21     8 1
    17    21     4 1
    18     3     4 1
    19     3    18 1
    20    11    24 1
    21     9     8 ar
    22     9    10 ar
    23     8     5 ar
    24    19     1 1
    25     4    22 2
    26    24    10 1
    27    10     7 ar
    28     5     6 ar
    29     1    18 1
    30     6     7 ar
    31     1    27 1
    32     2    28 1
    33     2    29 1
    34     5    49 1
    35     6    52 1
    36     7    30 1
    37    12    31 1
    38    14    32 1
    39    14    33 1
    40    15    34 1
    41    16    35 1
    42    16    36 1
    43    18    37 1
    44    18    38 1
    45    19    39 1
    46    19    40 1
    47    20    41 1
    48    20    42 1
    49    21    43 1
    50    23    44 1
    51    23    45 1
    52    24    46 1
    53    25    47 1
    54    25    48 1
    55    50    23 1
    56    51    25 1
@<TRIPOS>SUBSTRUCTURE
     1 E7H         1 TEMP              0 ****  ****    0 ROOT
