@<TRIPOS>MOLECULE
E7N
   65    68     1     0     0
SMALL
bcc


@<TRIPOS>ATOM
      1 C15          0.0000     0.0000     0.0000 c3         1 E7N       0.136300
      2 C17         -3.9830     1.3860     1.8320 ca         1 E7N      -0.082000
      3 C20         -8.9540     1.5680    -1.9230 cp         1 E7N      -0.026000
      4 C21        -10.0220     0.6900    -2.1030 ca         1 E7N      -0.159000
      5 C22        -10.7280     0.7000    -3.2940 ca         1 E7N       0.034600
      6 C26        -14.4240     0.8010    -0.4900 c3         1 E7N       0.003600
      7 C02         -8.8580     1.6210     0.5800 ca         1 E7N       0.525200
      8 C04         -6.8640     1.5370     1.7420 ca         1 E7N       0.457200
      9 C05         -6.1280     1.4760     0.5630 cp         1 E7N      -0.216300
     10 C06         -4.6460     1.3980     0.6060 cp         1 E7N      -0.033000
     11 C07         -3.9160     1.3370    -0.5800 ca         1 E7N      -0.082000
     12 C08         -2.5390     1.2660    -0.5380 ca         1 E7N      -0.141000
     13 C09         -1.8810     1.2530     0.6860 ca         1 E7N       0.018600
     14 C11          0.0010     1.1810     2.1130 c3         1 E7N       0.136300
     15 C12          1.5310     1.1810     2.1130 c3         1 E7N       0.144800
     16 C14          1.5310     0.0000     0.0000 c3         1 E7N       0.144800
     17 C16         -2.6070     1.3140     1.8700 ca         1 E7N      -0.141000
     18 C18         -6.8000     1.4830    -0.6630 ca         1 E7N      -0.010000
     19 C19         -8.1900     1.5570    -0.6520 cp         1 E7N      -0.226300
     20 C25        -13.4850     1.0250    -1.6770 c3         1 E7N      -0.016600
     21 C27        -15.0130     2.1410    -0.0460 c3         1 E7N       0.007900
     22 C30        -10.3700     1.5850    -4.3090 ca         1 E7N       0.110100
     23 C32        -10.6420     2.5270    -6.4760 c3         1 E7N       0.247700
     24 C33         -9.3070     2.4560    -4.1280 ca         1 E7N      -0.184000
     25 C34         -8.6010     2.4500    -2.9420 ca         1 E7N      -0.076000
     26 N03         -8.1800     1.6060     1.7170 nb         1 E7N      -0.652000
     27 N10         -0.4870     1.1810     0.7260 nh         1 E7N      -0.364000
     28 N13          2.0180     0.0000     1.3870 n7         1 E7N      -0.584200
     29 N23        -11.8020    -0.1810    -3.4790 nu         1 E7N      -0.391500
     30 O28        -11.8990    -1.0710    -1.2160 o          1 E7N      -0.581300
     31 O29        -13.7940    -1.3880    -2.7750 o          1 E7N      -0.581300
     32 O31        -11.0630     1.5940    -5.4790 os         1 E7N      -0.312900
     33 S24        -12.7860    -0.5640    -2.2040 s6         1 E7N       0.949900
     34 H151        -0.3600    -0.8970     0.4890 h1         1 E7N       0.024700
     35 H152        -0.3600     0.0310    -1.0210 h1         1 E7N       0.024700
     36 H171        -4.5490     1.4330     2.7540 ha         1 E7N       0.109000
     37 H211       -10.2990     0.0030    -1.3120 ha         1 E7N       0.186000
     38 H262       -13.8700     0.3600     0.3300 hc         1 E7N       0.027200
     39 H261       -15.2250     0.1340    -0.7840 hc         1 E7N       0.027200
     40 H041        -6.3490     1.5270     2.6950 h4         1 E7N      -0.016900
     41 H071        -4.4290     1.3470    -1.5340 ha         1 E7N       0.109000
     42 H081        -1.9710     1.2190    -1.4590 ha         1 E7N       0.117000
     43 H112        -0.3590     0.2940     2.6220 h1         1 E7N       0.024700
     44 H111        -0.3590     2.0670     2.6210 h1         1 E7N       0.024700
     45 H121         1.8910     1.1490     3.1340 h1         1 E7N       0.011450
     46 H122         1.8910     2.0780     1.6240 h1         1 E7N       0.011450
     47 H142         1.8910     0.8860    -0.5080 h1         1 E7N       0.011450
     48 H141         1.8910    -0.8860    -0.5080 h1         1 E7N       0.011450
     49 H161        -2.0920     1.3040     2.8230 ha         1 E7N       0.117000
     50 H181        -6.2530     1.4360    -1.5970 ha         1 E7N       0.117000
     51 H251       -14.0390     1.4660    -2.4970 h1         1 E7N       0.069200
     52 H252       -12.6840     1.6920    -1.3820 h1         1 E7N       0.069200
     53 H273       -15.6750     1.9830     0.7970 hc         1 E7N       0.003700
     54 H271       -14.2120     2.8100     0.2450 hc         1 E7N       0.003700
     55 H272       -15.5700     2.5800    -0.8650 hc         1 E7N       0.003700
     56 H321       -10.7150     3.5340    -6.0820 h1         1 E7N      -0.001633
     57 H323        -9.6150     2.3220    -6.7520 h1         1 E7N      -0.001633
     58 H322       -11.2760     2.4340    -7.3490 h1         1 E7N      -0.001633
     59 H331        -9.0300     3.1440    -4.9180 ha         1 E7N       0.122000
     60 H341        -7.7710     3.1320    -2.8030 ha         1 E7N       0.111000
     61 H012       -10.7510     1.8990    -0.2310 hn         1 E7N       0.274800
     62 H011       -10.7320     1.6050     1.4770 hn         1 E7N       0.274800
     63 H131         3.0190    -0.0040     1.3890 hn         1 E7N       0.253800
     64 H231       -11.9670    -0.5870    -4.3780 hn         1 E7N       0.357800
     65 N01        -10.2440     1.6940     0.6080 nv         1 E7N      -0.535500
@<TRIPOS>BOND
     1     1    16 1   
     2     1    27 1   
     3     1    34 1   
     4     1    35 1   
     5     2    10 ar  
     6     2    17 ar  
     7     2    36 1   
     8     3     4 ar  
     9     3    19 1   
    10     3    25 ar  
    11     4     5 ar  
    12     4    37 1   
    13     5    22 ar  
    14     5    29 1   
    15     6    20 1   
    16     6    21 1   
    17     6    38 1   
    18     6    39 1   
    19     7    19 ar  
    20     7    26 ar  
    21     7    65 1   
    22     8     9 ar  
    23     8    26 ar  
    24     8    40 1   
    25     9    10 1   
    26     9    18 ar  
    27    10    11 ar  
    28    11    12 ar  
    29    11    41 1   
    30    12    13 ar  
    31    12    42 1   
    32    13    17 ar  
    33    13    27 1   
    34    14    15 1   
    35    14    27 1   
    36    14    43 1   
    37    14    44 1   
    38    15    28 1   
    39    15    45 1   
    40    15    46 1   
    41    16    28 1   
    42    16    47 1   
    43    16    48 1   
    44    17    49 1   
    45    18    19 ar  
    46    18    50 1   
    47    20    33 1   
    48    20    51 1   
    49    20    52 1   
    50    21    53 1   
    51    21    54 1   
    52    21    55 1   
    53    22    24 ar  
    54    22    32 1   
    55    23    32 1   
    56    23    56 1   
    57    23    57 1   
    58    23    58 1   
    59    24    25 ar  
    60    24    59 1   
    61    25    60 1   
    62    28    63 1   
    63    29    33 1   
    64    29    64 1   
    65    30    33 2   
    66    31    33 2   
    67    61    65 1   
    68    62    65 1   
@<TRIPOS>SUBSTRUCTURE
     1 E7N         1 TEMP              0 ****  ****    0 ROOT
