@<TRIPOS>MOLECULE
molecule
   25    26     1     0     0
SMALL
bcc


@<TRIPOS>ATOM
      1 C10          0.0000     0.0000     0.0000 ca         1 E7S       0.092400
      2 C01          2.1460    -0.0100    -3.7000 c3         1 E7S      -0.043800
      3 C02          1.3970    -0.0090    -2.3920 ca         1 E7S      -0.066300
      4 C03          2.0960    -0.0000    -1.2030 ca         1 E7S      -0.126000
      5 C04          1.4050     0.0000     0.0000 ca         1 E7S      -0.094200
      6 N05          1.7860     0.0000     1.3280 na         1 E7S      -0.245300
      7 C06          0.6480    -0.0000     2.0740 cc         1 E7S       0.421800
      8 C07          0.6050     0.0000     3.5810 c3         1 E7S       0.140100
      9 O08          1.9380     0.0010     4.0960 oh         1 E7S      -0.624800
     10 N09         -0.3960    -0.0000     1.2990 nd         1 E7S      -0.608100
     11 C11         -0.6870    -0.0040    -1.2180 ca         1 E7S      -0.068000
     12 C12          0.0100    -0.0090    -2.3920 ca         1 E7S      -0.099300
     13 C13         -0.7360    -0.0200    -3.7010 c3         1 E7S      -0.041800
     14 H1           1.8730    -0.8880    -4.2720 hc         1 E7S       0.043033
     15 H2           3.2120    -0.0220    -3.5060 hc         1 E7S       0.043033
     16 H3           1.8910     0.8810    -4.2620 hc         1 E7S       0.043033
     17 H4           3.1730     0.1170    -1.2090 ha         1 E7S       0.129000
     18 H5           2.7160    -0.1320     1.6730 hn         1 E7S       0.314700
     19 H6           0.0840     0.8850     3.9270 h1         1 E7S       0.053200
     20 H7           0.0840    -0.8840     3.9280 h1         1 E7S       0.053200
     21 H8           1.9110     0.0120     5.0380 ho         1 E7S       0.419000
     22 H10         -1.7700    -0.0040    -1.2290 ha         1 E7S       0.142000
     23 H11         -0.4700     0.8590    -4.2760 hc         1 E7S       0.041700
     24 H12         -1.8030    -0.0160    -3.5090 hc         1 E7S       0.041700
     25 H13         -0.4740    -0.9100    -4.2600 hc         1 E7S       0.041700
@<TRIPOS>BOND
     1     1     5 ar
     2     1    10 1
     3     1    11 ar
     4     2     3 1
     5     3     4 ar
     6     3    12 ar
     7     4     5 ar
     8     5     6 1
     9     6     7 1
    10     7     8 1
    11     7    10 2
    12     8     9 1
    13    11    12 ar
    14    12    13 1
    15     2    14 1
    16     2    15 1
    17     2    16 1
    18     4    17 1
    19     6    18 1
    20     8    19 1
    21     8    20 1
    22     9    21 1
    23    11    22 1
    24    13    23 1
    25    13    24 1
    26    13    25 1
@<TRIPOS>SUBSTRUCTURE
     1 E7S         1 TEMP              0 ****  ****    0 ROOT
