@<TRIPOS>MOLECULE
molecule
   51    54     1     0     0
SMALL
bcc


@<TRIPOS>ATOM
      1 C1           0.0000     0.0000     0.0000 c3         1 E7T      -0.095100
      2 C2           1.5310     0.0000     0.0000 c3         1 E7T      -0.093400
      3 C3           2.0400     0.0000     1.4420 c3         1 E7T      -0.002400
      4 C5           1.4900     1.2240     2.1710 c3         1 E7T      -0.097400
      5 C6           2.1800     1.3240     3.5370 c3         1 E7T       0.099800
      6 O7           2.1180     0.0620     4.2020 oh         1 E7T      -0.574800
      7 C8           3.6400     1.7150     3.3100 c3         1 E7T       0.305800
      8 N10          4.3670     1.6160     4.5790 nu         1 E7T      -0.805600
      9 C11          5.5140     2.3750     4.7820 ca         1 E7T       0.254600
     10 C12          5.9730     3.2270     3.7920 ca         1 E7T      -0.270000
     11 C13          7.1140     3.9850     3.9930 ca         1 E7T      -0.024000
     12 C14          7.8140     3.9050     5.1790 ca         1 E7T      -0.241000
     13 C15          7.3770     3.0590     6.1910 ca         1 E7T       0.137600
     14 N16          8.0660     2.9700     7.3830 ns         1 E7T      -0.425100
     15 C18          7.6380     2.1480     8.3590 c          1 E7T       0.696700
     16 O19          8.2600     2.0810     9.4050 o          1 E7T      -0.645500
     17 C20          6.4790     1.3630     8.1900 cc         1 E7T      -0.252200
     18 C21          5.7740     1.4230     7.0330 cd         1 E7T      -0.027200
     19 C22          6.2140     2.2880     6.0000 ca         1 E7T      -0.197800
     20 C23          4.2810     0.8040     2.2960 ca         1 E7T      -0.069300
     21 C24          5.6680     0.7720     2.2450 ca         1 E7T      -0.164000
     22 C25          6.3220    -0.0380     1.3350 ca         1 E7T       0.124900
     23 F26          7.6720    -0.0610     1.2930 f          1 E7T      -0.120900
     24 C27          5.5870    -0.8260     0.4660 ca         1 E7T       0.033900
     25 F28          6.2150    -1.6200    -0.4290 f          1 E7T      -0.125900
     26 C29          4.2010    -0.7970     0.5170 ca         1 E7T       0.109100
     27 O30          3.4780    -1.5700    -0.3350 oh         1 E7T      -0.491100
     28 C31          3.5470     0.0190     1.4360 ca         1 E7T      -0.068300
     29 C32          1.4870     2.3900     4.3880 c3         1 E7T       0.585900
     30 F33          0.1450     2.0400     4.5710 f          1 E7T      -0.217633
     31 F34          2.1190     2.4770     5.6320 f          1 E7T      -0.217633
     32 F35          1.5610     3.6270     3.7380 f          1 E7T      -0.217633
     33 H11C        -0.3610    -0.4240    -0.9290 hc         1 E7T       0.034033
     34 H12C        -0.3610     1.0170     0.0970 hc         1 E7T       0.034033
     35 H13C        -0.3610    -0.5930     0.8320 hc         1 E7T       0.034033
     36 H21C         1.8920    -0.8850    -0.5110 hc         1 E7T       0.068700
     37 H22C         1.8920     0.8840    -0.5110 hc         1 E7T       0.068700
     38 H3           1.6990    -0.8960     1.9460 hc         1 E7T       0.079700
     39 H51C         0.4210     1.1140     2.3110 hc         1 E7T       0.070700
     40 H52C         1.6970     2.1160     1.5920 hc         1 E7T       0.070700
     41 H7           1.3450     0.0280     4.7400 ho         1 E7T       0.420000
     42 H8           3.6820     2.7350     2.9480 h1         1 E7T       0.095700
     43 H10          4.0700     0.9620     5.2760 hn         1 E7T       0.461800
     44 H12          5.4360     3.3020     2.8540 ha         1 E7T       0.139000
     45 H13          7.4630     4.6470     3.2100 ha         1 E7T       0.137000
     46 H14          8.7050     4.5040     5.3230 ha         1 E7T       0.138000
     47 H16          8.8910     3.5200     7.5230 hn         1 E7T       0.341500
     48 H20          6.1510     0.7080     8.9870 ha         1 E7T       0.163000
     49 H21          4.8830     0.8210     6.9020 ha         1 E7T       0.131000
     50 H24          6.2440     1.3850     2.9280 ha         1 E7T       0.180000
     51 H30          3.8610    -2.4300    -0.3830 ho         1 E7T       0.425000
@<TRIPOS>BOND
     1     1     2 1
     2     2     3 1
     3     3     4 1
     4     3    28 1
     5     4     5 1
     6     5     6 1
     7     5     7 1
     8     5    29 1
     9     7     8 1
    10     7    20 1
    11     8     9 1
    12     9    10 ar
    13     9    19 ar
    14    10    11 ar
    15    11    12 ar
    16    12    13 ar
    17    13    14 1
    18    13    19 ar
    19    14    15 1
    20    15    16 2
    21    15    17 1
    22    17    18 2
    23    18    19 1
    24    20    21 ar
    25    20    28 ar
    26    21    22 ar
    27    22    23 1
    28    22    24 ar
    29    24    25 1
    30    24    26 ar
    31    26    27 1
    32    26    28 ar
    33    29    30 1
    34    29    31 1
    35    29    32 1
    36     1    33 1
    37     1    34 1
    38     1    35 1
    39     2    36 1
    40     2    37 1
    41     3    38 1
    42     4    39 1
    43     4    40 1
    44     6    41 1
    45     7    42 1
    46     8    43 1
    47    10    44 1
    48    11    45 1
    49    12    46 1
    50    14    47 1
    51    17    48 1
    52    18    49 1
    53    21    50 1
    54    27    51 1
@<TRIPOS>SUBSTRUCTURE
     1 E7T         1 TEMP              0 ****  ****    0 ROOT
