@<TRIPOS>MOLECULE
E7V
   52    55     1     0     0
SMALL
bcc


@<TRIPOS>ATOM
      1 C2           0.0000     0.0000     0.0000 ca         1 E7V      -0.067800
      2 C4          -1.7700     0.0010     1.6490 ca         1 E7V      -0.010000
      3 C5          -2.7020     0.0010     0.6230 ca         1 E7V      -0.019100
      4 C7           1.4130     0.0000     0.0000 cc         1 E7V      -0.160200
      5 C6          -2.2880     0.0100    -0.7100 ca         1 E7V      -0.090000
      6 C8           1.8290     0.0000     1.2950 cd         1 E7V      -0.222300
      7 C1          -0.9610     0.0050    -1.0240 ca         1 E7V       0.086100
      8 C11          3.2260     0.0000     1.7410 c          1 E7V       0.998800
      9 C3          -0.4130     0.0010     1.3480 ca         1 E7V      -0.263200
     10 C19         -5.4990    -4.3980     0.8660 ca         1 E7V      -0.051600
     11 C20         -4.1780    -4.0050     0.7260 ca         1 E7V      -0.024600
     12 Cl2         -2.9380    -5.1990     0.4980 cl         1 E7V      -0.004400
     13 C21         -3.8470    -2.6640     0.7690 ca         1 E7V      -0.106000
     14 C18         -6.4910    -3.4480     1.0430 ca         1 E7V      -0.090000
     15 C17         -6.1660    -2.1080     1.0860 ca         1 E7V      -0.076000
     16 C16         -4.8400    -1.7100     0.9520 ca         1 E7V       0.073900
     17 S15         -4.4220     0.0010     1.0060 ss         1 E7V      -0.300800
     18 Br1         -0.4160     0.0030    -2.8350 br         1 E7V      -0.160100
     19 O12          3.5140     0.0020     3.0590 o          1 E7V      -0.865800
     20 O13          4.1240    -0.0010     0.9220 o          1 E7V      -0.865800
     21 N9           0.7210     0.0020     2.1260 na         1 E7V       0.466600
     22 C14          0.7520     0.0020     3.5910 c3         1 E7V      -0.022400
     23 C24          0.7630     1.4220     4.0920 ca         1 E7V      -0.086300
     24 C25         -0.4320     2.0720     4.3470 ca         1 E7V      -0.104000
     25 C26         -0.4290     3.3730     4.8070 ca         1 E7V      -0.087500
     26 C29          1.9670     2.0700     4.3020 ca         1 E7V      -0.104000
     27 C28          1.9840     3.3710     4.7610 ca         1 E7V      -0.087500
     28 C27          0.7830     4.0340     5.0150 ca         1 E7V      -0.163600
     29 C30          0.7930     5.4280     5.5080 c          1 E7V       0.618700
     30 O31          0.0190     5.7700     6.3800 o          1 E7V      -0.663100
     31 N32          1.6610     6.3190     4.9900 n          1 E7V      -0.165800
     32 C33          1.6060     7.7230     5.4070 c3         1 E7V       0.079800
     33 C34          2.6610     5.8840     4.0110 c3         1 E7V       0.079800
     34 H1          -2.0980    -0.0060     2.6810 ha         1 E7V       0.113000
     35 H2           2.0500     0.0780    -0.8730 ha         1 E7V       0.149000
     36 H3          -3.0270     0.0090    -1.5020 ha         1 E7V       0.121000
     37 H4          -2.8140    -2.3570     0.6620 ha         1 E7V       0.150000
     38 H5          -7.5240    -3.7580     1.1470 ha         1 E7V       0.111000
     39 H6          -6.9430    -1.3660     1.2260 ha         1 E7V       0.116000
     40 H8           1.6440    -0.5090     3.9340 h1         1 E7V       0.062700
     41 H9          -0.1250    -0.5080     3.9710 h1         1 E7V       0.062700
     42 H10         -1.3720     1.5590     4.1840 ha         1 E7V       0.151500
     43 H11         -1.3650     3.8820     5.0040 ha         1 E7V       0.113000
     44 H12          2.8990     1.5550     4.1040 ha         1 E7V       0.151500
     45 H13          2.9280     3.8770     4.9230 ha         1 E7V       0.113000
     46 H14          2.3900     8.2790     4.9060 h1         1 E7V       0.011867
     47 H15          0.6420     8.1400     5.1430 h1         1 E7V       0.011867
     48 H16          1.7470     7.7870     6.4790 h1         1 E7V       0.011867
     49 H17          3.5210     5.4770     4.5290 h1         1 E7V       0.011867
     50 H18          2.2310     5.1230     3.3710 h1         1 E7V       0.011867
     51 H19          2.9690     6.7300     3.4090 h1         1 E7V       0.011867
     52 Cl1         -5.9120    -6.0830     0.8120 cl         1 E7V      -0.026400
@<TRIPOS>BOND
     1     1     4 1   
     2     1     7 ar  
     3     1     9 ar  
     4     2     3 ar  
     5     2     9 ar  
     6     2    34 1   
     7     3     5 ar  
     8     3    17 1   
     9     4     6 2   
    10     4    35 1   
    11     5     7 ar  
    12     5    36 1   
    13     6     8 1   
    14     6    21 1   
    15     7    18 1   
    16     8    19 1   
    17     8    20 1   
    18     9    21 1   
    19    10    11 ar  
    20    10    14 ar  
    21    10    52 1   
    22    11    12 1   
    23    11    13 ar  
    24    13    16 ar  
    25    13    37 1   
    26    14    15 ar  
    27    14    38 1   
    28    15    16 ar  
    29    15    39 1   
    30    16    17 1   
    31    21    22 1   
    32    22    23 1   
    33    22    40 1   
    34    22    41 1   
    35    23    24 ar  
    36    23    26 ar  
    37    24    25 ar  
    38    24    42 1   
    39    25    28 ar  
    40    25    43 1   
    41    26    27 ar  
    42    26    44 1   
    43    27    28 ar  
    44    27    45 1   
    45    28    29 1   
    46    29    30 2   
    47    29    31 1   
    48    31    32 1   
    49    31    33 1   
    50    32    46 1   
    51    32    47 1   
    52    32    48 1   
    53    33    49 1   
    54    33    50 1   
    55    33    51 1   
@<TRIPOS>SUBSTRUCTURE
     1 E7V         1 TEMP              0 ****  ****    0 ROOT
