@<TRIPOS>MOLECULE
molecule
   52    55     1     0     0
SMALL
bcc


@<TRIPOS>ATOM
      1 C2           0.0000     0.0000     0.0000 ca         1 E7V      -0.052800
      2 C4          -1.7700     0.0010     1.6490 ca         1 E7V      -0.056000
      3 C5          -2.7020     0.0010     0.6230 ca         1 E7V      -0.053100
      4 C7           1.4130     0.0000     0.0000 cc         1 E7V      -0.203200
      5 C6          -2.2880     0.0100    -0.7100 ca         1 E7V      -0.097000
      6 C8           1.8290     0.0000     1.2950 cd         1 E7V      -0.030300
      7 C1          -0.9610     0.0050    -1.0240 ca         1 E7V       0.009100
      8 C11          3.2260     0.0000     1.7410 c          1 E7V       0.899800
      9 C3          -0.4130     0.0010     1.3480 ca         1 E7V      -0.080200
     10 C19         -5.4990    -4.3980     0.8660 ca         1 E7V       0.010400
     11 C20         -4.1780    -4.0050     0.7260 ca         1 E7V       0.047400
     12 Cl2         -2.9380    -5.1990     0.4980 cl         1 E7V      -0.087400
     13 C21         -3.8470    -2.6640     0.7690 ca         1 E7V      -0.122000
     14 C18         -6.4910    -3.4480     1.0430 ca         1 E7V      -0.108000
     15 C17         -6.1660    -2.1080     1.0860 ca         1 E7V      -0.118000
     16 C16         -4.8400    -1.7100     0.9520 ca         1 E7V       0.037900
     17 S15         -4.4220     0.0010     1.0060 ss         1 E7V      -0.192800
     18 Br1         -0.4160     0.0030    -2.8350 br         1 E7V      -0.117100
     19 O12          3.5140     0.0020     3.0590 o          1 E7V      -0.817800
     20 O13          4.1240    -0.0010     0.9220 o          1 E7V      -0.817800
     21 N9           0.7210     0.0020     2.1260 na         1 E7V      -0.031400
     22 C14          0.7520     0.0020     3.5910 c3         1 E7V       0.089600
     23 C24          0.7630     1.4220     4.0920 ca         1 E7V      -0.085300
     24 C25         -0.4320     2.0720     4.3470 ca         1 E7V      -0.116500
     25 C26         -0.4290     3.3730     4.8070 ca         1 E7V      -0.112500
     26 C29          1.9670     2.0700     4.3020 ca         1 E7V      -0.116500
     27 C28          1.9840     3.3710     4.7610 ca         1 E7V      -0.112500
     28 C27          0.7830     4.0340     5.0150 ca         1 E7V      -0.151600
     29 C30          0.7930     5.4280     5.5080 c          1 E7V       0.680700
     30 O31          0.0190     5.7700     6.3800 o          1 E7V      -0.621100
     31 N32          1.6610     6.3190     4.9900 n          1 E7V      -0.497800
     32 C33          1.6060     7.7230     5.4070 c3         1 E7V       0.098800
     33 C34          2.6610     5.8840     4.0110 c3         1 E7V       0.098800
     34 H1          -2.0980    -0.0060     2.6810 ha         1 E7V       0.134000
     35 H2           2.0500     0.0780    -0.8730 ha         1 E7V       0.175000
     36 H3          -3.0270     0.0090    -1.5020 ha         1 E7V       0.140000
     37 H4          -2.8140    -2.3570     0.6620 ha         1 E7V       0.175000
     38 H5          -7.5240    -3.7580     1.1470 ha         1 E7V       0.142000
     39 H6          -6.9430    -1.3660     1.2260 ha         1 E7V       0.142000
     40 H8           1.6440    -0.5090     3.9340 h1         1 E7V       0.085200
     41 H9          -0.1250    -0.5080     3.9710 h1         1 E7V       0.085200
     42 H10         -1.3720     1.5590     4.1840 ha         1 E7V       0.170500
     43 H11         -1.3650     3.8820     5.0040 ha         1 E7V       0.135500
     44 H12          2.8990     1.5550     4.1040 ha         1 E7V       0.170500
     45 H13          2.9280     3.8770     4.9230 ha         1 E7V       0.135500
     46 H14          2.3900     8.2790     4.9060 h1         1 E7V       0.040533
     47 H15          0.6420     8.1400     5.1430 h1         1 E7V       0.040533
     48 H16          1.7470     7.7870     6.4790 h1         1 E7V       0.040533
     49 H17          3.5210     5.4770     4.5290 h1         1 E7V       0.040533
     50 H18          2.2310     5.1230     3.3710 h1         1 E7V       0.040533
     51 H19          2.9690     6.7300     3.4090 h1         1 E7V       0.040533
     52 Cl1         -5.9120    -6.0830     0.8120 cl         1 E7V      -0.107400
@<TRIPOS>BOND
     1    18     7 1
     2    20     8 1
     3     7     5 ar
     4     7     1 ar
     5     4     1 1
     6     4     6 2
     7     5     3 ar
     8     1     9 ar
     9     8     6 1
    10     8    19 1
    11     6    21 1
    12     3     2 ar
    13     3    17 1
    14     9    21 1
    15     9     2 ar
    16    21    22 1
    17    17    16 1
    18    22    23 1
    19    26    23 ar
    20    26    27 ar
    21    23    24 ar
    22    16    13 ar
    23    16    15 ar
    24    13    11 ar
    25    27    28 ar
    26    24    25 ar
    27    15    14 ar
    28    33    31 1
    29    28    25 ar
    30    28    29 1
    31    11    12 1
    32    11    10 ar
    33    31    32 1
    34    31    29 1
    35    14    10 ar
    36    29    30 2
    37    10    52 1
    38     2    34 1
    39     4    35 1
    40     5    36 1
    41    13    37 1
    42    14    38 1
    43    15    39 1
    44    22    40 1
    45    22    41 1
    46    24    42 1
    47    25    43 1
    48    26    44 1
    49    27    45 1
    50    32    46 1
    51    32    47 1
    52    32    48 1
    53    33    49 1
    54    33    50 1
    55    33    51 1
@<TRIPOS>SUBSTRUCTURE
     1 E7V         1 TEMP              0 ****  ****    0 ROOT
