@<TRIPOS>MOLECULE
E7W
   54    57     1     0     0
SMALL
bcc


@<TRIPOS>ATOM
      1 N1           0.0000     0.0000     0.0000 nu         1 E7W      -0.340900
      2 C5           1.9750    -1.2500    -0.7210 c3         1 E7W      -0.072700
      3 C7           1.4650    -2.4980    -0.0010 c3         1 E7W      -0.267400
      4 C10          1.9740    -2.4980     1.4430 c3         1 E7W       0.017600
      5 C13          1.4640    -1.2500     2.1630 c3         1 E7W      -0.045400
      6 C26         -2.0530     3.5080     0.3070 ca         1 E7W      -0.370600
      7 C19          1.4730    -1.2480    -2.1420 c          1 E7W       0.972600
      8 O20          0.7800    -0.3420    -2.5380 o          1 E7W      -0.885300
      9 C16          1.9750     0.0000     1.4430 c3         1 E7W      -0.052400
     10 C3           1.4660     0.0000     0.0000 c3         1 E7W       0.125500
     11 C23         -0.6910     1.1940     0.1040 ca         1 E7W       0.745900
     12 N28         -2.0200     1.1630     0.0910 nb         1 E7W      -0.736000
     13 C27         -2.7390     2.2730     0.1880 ca         1 E7W       0.542200
     14 C47         -2.7330     4.7260     0.4140 ca         1 E7W      -0.055000
     15 C49         -2.0220     5.8850     0.5260 ca         1 E7W      -0.148000
     16 C51         -0.6310     5.8720     0.5360 ca         1 E7W      -0.071000
     17 C53          0.0620     4.7020     0.4340 ca         1 E7W      -0.170300
     18 C25         -0.6380     3.4930     0.3120 ca         1 E7W       0.495600
     19 N24         -0.0040     2.3160     0.2080 nb         1 E7W      -0.724000
     20 N29         -4.1170     2.2280     0.1720 nu         1 E7W      -0.295300
     21 C31         -4.7730     1.0160    -0.0630 ca         1 E7W       0.034600
     22 C39         -4.2060     0.0690    -0.9060 ca         1 E7W      -0.047000
     23 C37         -4.8570    -1.1270    -1.1370 ca         1 E7W      -0.053000
     24 C35         -6.0730    -1.3820    -0.5300 ca         1 E7W      -0.117000
     25 C34         -6.6410    -0.4400     0.3100 ca         1 E7W      -0.192300
     26 C32         -5.9920     0.7540     0.5500 ca         1 E7W      -0.159000
     27 C41         -7.9630    -0.7250     0.9750 c3         1 E7W       0.067100
     28 N44         -9.0550    -0.2440     0.1190 nz         1 E7W       0.040400
     29 H1          -0.4940    -0.8660     0.0900 hn         1 E7W       0.299800
     30 H2           3.0580    -1.2480    -0.7300 hc         1 E7W       0.020700
     31 H3           2.5110    -2.3960    -0.2610 hc         1 E7W       0.099700
     32 H4           1.0030    -3.3690    -0.4500 hc         1 E7W       0.099700
     33 H5           1.5680    -3.3520     1.9710 hc         1 E7W       0.000200
     34 H6           3.0570    -2.4660     1.4520 hc         1 E7W       0.000200
     35 H7           0.3820    -1.2850     2.1180 hc         1 E7W       0.003200
     36 H8           1.7820    -1.3000     3.1970 hc         1 E7W       0.003200
     37 H10          3.0580    -0.0190     1.4210 hc         1 E7W       0.020200
     38 H11          1.5740     0.8670     1.9540 hc         1 E7W       0.020200
     39 H12          1.7750     0.9400    -0.4420 h1         1 E7W       0.072700
     40 H13         -3.8160     4.7480     0.4070 ha         1 E7W       0.081000
     41 H14         -2.4890     6.8510     0.6740 ha         1 E7W       0.098000
     42 H15         -0.0760     6.7940     0.6600 ha         1 E7W       0.098000
     43 H16          1.1450     4.6970     0.4060 ha         1 E7W       0.124000
     44 H17         -4.6780     2.9380     0.5990 hn         1 E7W       0.280800
     45 H18         -3.2520     0.2700    -1.3800 ha         1 E7W       0.180000
     46 H19         -4.4000    -1.8660    -1.7840 ha         1 E7W       0.133000
     47 H20         -6.5530    -2.3360    -0.7090 ha         1 E7W       0.103000
     48 H21         -6.4080     1.5040     1.2120 ha         1 E7W       0.103000
     49 H22         -8.0660    -0.1160     1.8650 hx         1 E7W       0.066700
     50 H23         -8.1190    -1.7730     1.2010 hx         1 E7W       0.066700
     51 H24         -8.8250     0.6930    -0.1460 hn         1 E7W       0.223800
     52 H25         -9.0720    -0.7720    -0.7320 hn         1 E7W       0.223800
     53 O21          1.7980    -2.2550    -2.9690 o          1 E7W      -0.885300
     54 H443        -9.9180    -0.2950     0.6230 hn         1 E7W       0.223800
@<TRIPOS>BOND
     1     1    10 1   
     2     1    11 1   
     3     1    29 1   
     4     2     3 1   
     5     2     7 1   
     6     2    10 1   
     7     2    30 1   
     8     3     4 1   
     9     3    31 1   
    10     3    32 1   
    11     4     5 1   
    12     4    33 1   
    13     4    34 1   
    14     5     9 1   
    15     5    35 1   
    16     5    36 1   
    17     6    13 ar  
    18     6    14 ar  
    19     6    18 ar  
    20     7     8 1   
    21     7    53 1   
    22     9    10 1   
    23     9    37 1   
    24     9    38 1   
    25    10    39 1   
    26    11    12 ar  
    27    11    19 ar  
    28    12    13 ar  
    29    13    20 1   
    30    14    15 ar  
    31    14    40 1   
    32    15    16 ar  
    33    15    41 1   
    34    16    17 ar  
    35    16    42 1   
    36    17    18 ar  
    37    17    43 1   
    38    18    19 ar  
    39    20    21 1   
    40    20    44 1   
    41    21    22 ar  
    42    21    26 ar  
    43    22    23 ar  
    44    22    45 1   
    45    23    24 ar  
    46    23    46 1   
    47    24    25 ar  
    48    24    47 1   
    49    25    26 ar  
    50    25    27 1   
    51    26    48 1   
    52    27    28 1   
    53    27    49 1   
    54    27    50 1   
    55    28    51 1   
    56    28    52 1   
    57    28    54 1   
@<TRIPOS>SUBSTRUCTURE
     1 E7W         1 TEMP              0 ****  ****    0 ROOT
