@<TRIPOS>MOLECULE
E7Y
   62    61     1     0     0
SMALL
bcc


@<TRIPOS>ATOM
      1 C10          0.0000     0.0000     0.0000 c          1 E7Y       0.569100
      2 C11         -5.2760     0.9070    -2.6660 c2         1 E7Y      -0.155200
      3 C12         -4.7200     1.7850    -3.7560 c3         1 E7Y       0.021000
      4 C13         -5.6270     1.7280    -4.9580 c2         1 E7Y      -0.151200
      5 C15         -5.5990     4.1690    -4.9860 c3         1 E7Y       0.019000
      6 C16         -5.1040     4.9870    -6.1520 c2         1 E7Y      -0.155200
      7 C19         -5.8850     8.1840    -4.9250 c2         1 E7Y      -0.150200
      8 C21         -8.1140     9.1190    -5.2620 c3         1 E7Y      -0.004200
      9 C22         -8.9060     9.8490    -4.1750 c3         1 E7Y      -0.022400
     10 C23        -10.4040     9.7140    -4.4580 c3         1 E7Y      -0.030400
     11 C25        -12.6940    10.3090    -3.6530 c3         1 E7Y       0.005900
     12 C18         -6.4500     6.8410    -5.3070 c3         1 E7Y       0.019000
     13 C20         -6.6390     9.2530    -4.9840 c2         1 E7Y      -0.159200
     14 N01          1.3470     0.0000     0.0000 ns         1 E7Y      -0.193900
     15 O02         -0.6070     0.0000     1.0500 o          1 E7Y      -0.651100
     16 C03          2.0790    -0.0010     1.2690 c3         1 E7Y       0.044000
     17 C04          3.5840    -0.0020     0.9900 c3         1 E7Y       0.210400
     18 O05          3.9490     1.2190     0.3430 oh         1 E7Y      -0.595800
     19 C06         -4.5040     0.0270    -2.0770 c2         1 E7Y      -0.154200
     20 C07         -3.0220     0.0210    -2.3520 c3         1 E7Y      -0.006200
     21 C08         -2.2570     0.0140    -1.0260 c3         1 E7Y      -0.008400
     22 C09         -0.7530     0.0070    -1.3060 c3         1 E7Y      -0.097400
     23 C14         -6.0920     2.8350    -5.4820 c2         1 E7Y      -0.152200
     24 C17         -5.5650     6.1980    -6.3430 c2         1 E7Y      -0.150200
     25 C24        -11.1960    10.4440    -3.3710 c3         1 E7Y      -0.028400
     26 H1          -6.3000     1.0340    -2.3370 ha         1 E7Y       0.105000
     27 H2          -3.7320     1.4370    -4.0320 hc         1 E7Y       0.037200
     28 H3          -4.6570     2.8060    -3.4000 hc         1 E7Y       0.037200
     29 H4          -5.9830     0.7700    -5.3180 ha         1 E7Y       0.104000
     30 H5          -6.4090     4.6940    -4.4950 hc         1 E7Y       0.038700
     31 H6          -4.7890     4.0160    -4.2830 hc         1 E7Y       0.038700
     32 H7          -4.3350     4.5910    -6.8030 ha         1 E7Y       0.104000
     33 H8          -4.8590     8.2630    -4.5860 ha         1 E7Y       0.104000
     34 H9          -8.3870     8.0710    -5.2660 hc         1 E7Y       0.025700
     35 H10         -8.3400     9.5550    -6.2270 hc         1 E7Y       0.025700
     36 H11         -8.6330    10.8970    -4.1700 hc         1 E7Y       0.015700
     37 H12         -8.6810     9.4130    -3.2090 hc         1 E7Y       0.015700
     38 H13        -10.6290    10.1500    -5.4230 hc         1 E7Y       0.014200
     39 H14        -10.6770     8.6660    -4.4620 hc         1 E7Y       0.014200
     40 H15        -12.9190    10.7450    -4.6190 hc         1 E7Y       0.000367
     41 H16        -12.9670     9.2610    -3.6580 hc         1 E7Y       0.000367
     42 H17        -13.2540    10.8250    -2.8840 hc         1 E7Y       0.000367
     43 H18         -7.4460     6.9700    -5.7130 hc         1 E7Y       0.038200
     44 H19         -6.4980     6.2070    -4.4300 hc         1 E7Y       0.038200
     45 H20         -6.1960    10.2350    -4.8720 ha         1 E7Y       0.103000
     46 H21          1.8480    -0.0320    -0.8660 hn         1 E7Y       0.178500
     47 H22          1.8180     0.8830     1.8380 h1         1 E7Y       0.032200
     48 H23          1.8170    -0.8860     1.8370 h1         1 E7Y       0.032200
     49 H24          3.8320    -0.8390     0.3480 h1         1 E7Y      -0.007800
     50 H25          4.1240    -0.0910     1.9250 h1         1 E7Y      -0.007800
     51 H26          4.8860     1.3220     0.3720 ho         1 E7Y       0.395000
     52 H27         -4.9330    -0.7090    -1.4080 ha         1 E7Y       0.106000
     53 H28         -2.7640    -0.8640    -2.9220 hc         1 E7Y       0.022200
     54 H29         -2.7560     0.9050    -2.9180 hc         1 E7Y       0.022200
     55 H30         -2.5230    -0.8710    -0.4600 hc         1 E7Y       0.031200
     56 H31         -2.5150     0.8980    -0.4560 hc         1 E7Y       0.031200
     57 H32         -0.4960    -0.8770    -1.8770 hc         1 E7Y       0.025700
     58 H33         -0.4880     0.8920    -1.8710 hc         1 E7Y       0.025700
     59 H34         -6.7440     2.7890    -6.3470 ha         1 E7Y       0.104000
     60 H35         -5.3210     6.7330    -7.2530 ha         1 E7Y       0.104000
     61 H36        -10.9220    11.4920    -3.3660 hc         1 E7Y       0.012200
     62 H37        -10.9700    10.0070    -2.4050 hc         1 E7Y       0.012200
@<TRIPOS>BOND
     1     1    14 1   
     2     1    15 2   
     3     1    22 1   
     4     2     3 1   
     5     2    19 2   
     6     2    26 1   
     7     3     4 1   
     8     3    27 1   
     9     3    28 1   
    10     4    23 2   
    11     4    29 1   
    12     5     6 1   
    13     5    23 1   
    14     5    30 1   
    15     5    31 1   
    16     6    24 2   
    17     6    32 1   
    18     7    12 1   
    19     7    13 2   
    20     7    33 1   
    21     8     9 1   
    22     8    13 1   
    23     8    34 1   
    24     8    35 1   
    25     9    10 1   
    26     9    36 1   
    27     9    37 1   
    28    10    25 1   
    29    10    38 1   
    30    10    39 1   
    31    11    25 1   
    32    11    40 1   
    33    11    41 1   
    34    11    42 1   
    35    12    24 1   
    36    12    43 1   
    37    12    44 1   
    38    13    45 1   
    39    14    16 1   
    40    14    46 1   
    41    16    17 1   
    42    16    47 1   
    43    16    48 1   
    44    17    18 1   
    45    17    49 1   
    46    17    50 1   
    47    18    51 1   
    48    19    20 1   
    49    19    52 1   
    50    20    21 1   
    51    20    53 1   
    52    20    54 1   
    53    21    22 1   
    54    21    55 1   
    55    21    56 1   
    56    22    57 1   
    57    22    58 1   
    58    23    59 1   
    59    24    60 1   
    60    25    61 1   
    61    25    62 1   
@<TRIPOS>SUBSTRUCTURE
     1 E7Y         1 TEMP              0 ****  ****    0 ROOT
