@<TRIPOS>MOLECULE
molecule
   62    61     1     0     0
SMALL
bcc


@<TRIPOS>ATOM
      1 C10          0.0000     0.0000     0.0000 c          1 E7Y       0.658100
      2 C11         -5.2760     0.9070    -2.6660 c2         1 E7Y      -0.087200
      3 C12         -4.7200     1.7850    -3.7560 c3         1 E7Y      -0.022000
      4 C13         -5.6270     1.7280    -4.9580 c2         1 E7Y      -0.357200
      5 C15         -5.5990     4.1690    -4.9860 c3         1 E7Y      -0.200000
      6 C16         -5.1040     4.9870    -6.1520 c2         1 E7Y      -0.073200
      7 C19         -5.8850     8.1840    -4.9250 c2         1 E7Y      -0.212200
      8 C21         -8.1140     9.1190    -5.2620 c3         1 E7Y       0.064800
      9 C22         -8.9060     9.8490    -4.1750 c3         1 E7Y      -0.097400
     10 C23        -10.4040     9.7140    -4.4580 c3         1 E7Y      -0.090400
     11 C25        -12.6940    10.3090    -3.6530 c3         1 E7Y      -0.092100
     12 C18         -6.4500     6.8410    -5.3070 c3         1 E7Y       0.053000
     13 C20         -6.6390     9.2530    -4.9840 c2         1 E7Y      -0.214200
     14 N01          1.3470     0.0000     0.0000 ns         1 E7Y      -0.580900
     15 O02         -0.6070     0.0000     1.0500 o          1 E7Y      -0.607100
     16 C03          2.0790    -0.0010     1.2690 c3         1 E7Y       0.116000
     17 C04          3.5840    -0.0020     0.9900 c3         1 E7Y       0.119400
     18 O05          3.9490     1.2190     0.3430 oh         1 E7Y      -0.611800
     19 C06         -4.5040     0.0270    -2.0770 c2         1 E7Y      -0.257200
     20 C07         -3.0220     0.0210    -2.3520 c3         1 E7Y       0.090800
     21 C08         -2.2570     0.0140    -1.0260 c3         1 E7Y      -0.080400
     22 C09         -0.7530     0.0070    -1.3060 c3         1 E7Y      -0.167400
     23 C14         -6.0920     2.8350    -5.4820 c2         1 E7Y      -0.244200
     24 C17         -5.5650     6.1980    -6.3430 c2         1 E7Y      -0.281200
     25 C24        -11.1960    10.4440    -3.3710 c3         1 E7Y      -0.082400
     26 H1          -4.7560     1.8250    -2.4220 ha         1 E7Y       0.094000
     27 H2          -4.6570     2.8060    -3.4000 hc         1 E7Y       0.026700
     28 H3          -3.7320     1.4370    -4.0320 hc         1 E7Y       0.026700
     29 H4          -4.5620     1.8990    -5.0660 ha         1 E7Y       0.271000
     30 H5          -6.4090     4.6940    -4.4950 hc         1 E7Y       0.033700
     31 H6          -4.7890     4.0160    -4.2830 hc         1 E7Y       0.033700
     32 H7          -4.6620     5.0970    -5.1690 ha         1 E7Y       0.149000
     33 H8          -6.4410     7.5910    -4.2090 ha         1 E7Y       0.034000
     34 H9          -8.3870     8.0710    -5.2660 hc         1 E7Y       0.053700
     35 H10         -8.3400     9.5550    -6.2270 hc         1 E7Y       0.053700
     36 H11         -8.6810     9.4130    -3.2090 hc         1 E7Y       0.057200
     37 H12         -8.6330    10.8970    -4.1700 hc         1 E7Y       0.057200
     38 H13        -10.6290    10.1500    -5.4230 hc         1 E7Y       0.041200
     39 H14        -10.6770     8.6660    -4.4620 hc         1 E7Y       0.041200
     40 H15        -13.2540    10.8260    -2.8840 hc         1 E7Y       0.034367
     41 H16        -12.9670     9.2610    -3.6570 hc         1 E7Y       0.034367
     42 H17        -12.9190    10.7450    -4.6190 hc         1 E7Y       0.034367
     43 H18         -7.4460     6.9700    -5.7130 hc         1 E7Y       0.073700
     44 H19         -6.4980     6.2070    -4.4300 hc         1 E7Y       0.073700
     45 H20         -7.0090     9.1770    -5.9990 ha         1 E7Y       0.096000
     46 H21          1.8480    -0.0320    -0.8660 hn         1 E7Y       0.319500
     47 H22          1.8170    -0.8860     1.8370 h1         1 E7Y       0.063200
     48 H23          1.8180     0.8830     1.8380 h1         1 E7Y       0.063200
     49 H24          4.1240    -0.0910     1.9250 h1         1 E7Y       0.030700
     50 H25          3.8320    -0.8390     0.3480 h1         1 E7Y       0.030700
     51 H26          4.8860     1.3220     0.3720 ho         1 E7Y       0.406000
     52 H27         -4.1050    -0.4940    -2.9380 ha         1 E7Y       0.083000
     53 H28         -2.7640    -0.8640    -2.9220 hc         1 E7Y       0.043200
     54 H29         -2.7560     0.9050    -2.9180 hc         1 E7Y       0.043200
     55 H30         -2.5230    -0.8710    -0.4600 hc         1 E7Y       0.076200
     56 H31         -2.5150     0.8980    -0.4560 hc         1 E7Y       0.076200
     57 H32         -0.4960    -0.8770    -1.8770 hc         1 E7Y       0.057700
     58 H33         -0.4870     0.8920    -1.8710 hc         1 E7Y       0.057700
     59 H34         -6.5190     3.2990    -4.6020 ha         1 E7Y       0.287000
     60 H35         -5.3010     6.5130    -5.3400 ha         1 E7Y       0.212000
     61 H36        -10.9700    10.0070    -2.4050 hc         1 E7Y       0.042700
     62 H37        -10.9220    11.4920    -3.3660 hc         1 E7Y       0.042700
@<TRIPOS>BOND
     1    11    25 1
     2    25    10 1
     3     9    10 1
     4     9     8 1
     5    13     7 2
     6    13     8 1
     7     7    12 1
     8    12    24 1
     9    24     6 2
    10     6     5 1
    11    20    21 1
    12    20    19 1
    13     3     4 1
    14     3     2 1
    15    21    22 1
    16     5    23 1
    17     4    23 2
    18    19     2 2
    19    17    18 1
    20    17    16 1
    21    22     1 1
    22     1    15 2
    23     1    14 1
    24    14    16 1
    25     2    26 1
    26     3    27 1
    27     3    28 1
    28     4    29 1
    29     5    30 1
    30     5    31 1
    31     6    32 1
    32     7    33 1
    33     8    34 1
    34     8    35 1
    35     9    36 1
    36     9    37 1
    37    10    38 1
    38    10    39 1
    39    11    40 1
    40    11    41 1
    41    11    42 1
    42    12    43 1
    43    12    44 1
    44    13    45 1
    45    14    46 1
    46    16    47 1
    47    16    48 1
    48    17    49 1
    49    17    50 1
    50    18    51 1
    51    19    52 1
    52    20    53 1
    53    20    54 1
    54    21    55 1
    55    21    56 1
    56    22    57 1
    57    22    58 1
    58    23    59 1
    59    24    60 1
    60    25    61 1
    61    25    62 1
@<TRIPOS>SUBSTRUCTURE
     1 E7Y         1 TEMP              0 ****  ****    0 ROOT
