@<TRIPOS>MOLECULE
molecule
   18    18     1     0     0
SMALL
bcc


@<TRIPOS>ATOM
      1 C4           0.0000     0.0000     0.0000 c          1 E7Z       0.551500
      2 C5           1.4170     0.0000     0.0000 cc         1 E7Z      -0.287200
      3 C6           2.0800     0.0000     1.1890 cd         1 E7Z       0.078800
      4 C7           3.5600     0.0010     1.2040 c          1 E7Z       0.882800
      5 N            1.3920     0.0010     2.3680 na         1 E7Z      -0.461200
      6 C1           2.1340     0.0010     3.6310 c3         1 E7Z       0.218100
      7 C2           0.0380     0.0010     2.3950 cc         1 E7Z       0.041000
      8 C3          -0.6800     0.0060     1.2410 cd         1 E7Z      -0.124100
      9 O1          -0.6230     0.0000    -1.0520 o          1 E7Z      -0.633100
     10 O2           4.1560     0.1170     2.2550 o          1 E7Z      -0.818800
     11 O3           4.2450    -0.1280     0.0510 o          1 E7Z      -0.818800
     12 O4          -2.0400     0.0050     1.2790 oh         1 E7Z      -0.500100
     13 H1           1.9650    -0.0040    -0.9340 ha         1 E7Z       0.188000
     14 H2           2.7940    -0.8570     3.6630 h1         1 E7Z       0.052033
     15 H3           2.7200     0.9100     3.7050 h1         1 E7Z       0.052033
     16 H4           1.4380    -0.0480     4.4590 h1         1 E7Z       0.052033
     17 H5          -0.4780     0.0030     3.3470 h4         1 E7Z       0.136000
     18 H8          -2.3520     0.8900     1.3690 ho         1 E7Z       0.390000
@<TRIPOS>BOND
     1     6     5 1
     2     7     5 1
     3     7     8 2
     4     5     3 1
     5    12     8 1
     6     8     1 1
     7    10     4 1
     8     3     4 1
     9     3     2 2
    10     4    11 1
    11     1     2 1
    12     1     9 2
    13     2    13 1
    14     6    14 1
    15     6    15 1
    16     6    16 1
    17     7    17 1
    18    12    18 1
@<TRIPOS>SUBSTRUCTURE
     1 E7Z         1 TEMP              0 ****  ****    0 ROOT
