@<TRIPOS>MOLECULE
molecule
   52    55     1     0     0
SMALL
bcc


@<TRIPOS>ATOM
      1 C3           0.0000     0.0000     0.0000 c3         1 E82       0.168000
      2 C42         -1.6400    -0.2230     8.7020 ca         1 E82      -0.110000
      3 C44         -1.5050     0.1820     7.3900 ca         1 E82      -0.083000
      4 C46         -2.9130     2.9250    10.3570 c3         1 E82       0.161100
      5 C11          1.6150     0.0050    -2.5270 c3         1 E82      -0.037100
      6 C14          2.2480    -0.0010    -1.1600 ca         1 E82      -0.053300
      7 C15          1.5070     0.0000     0.0000 ca         1 E82      -0.103300
      8 C16          2.1530     0.0000     1.2290 ca         1 E82      -0.116000
      9 C18          3.5320    -0.0050     1.2970 ca         1 E82      -0.137000
     10 C20          4.2760    -0.0100     0.1310 ca         1 E82      -0.130000
     11 C22          3.6350    -0.0090    -1.0900 ca         1 E82      -0.134000
     12 C26         -1.0960     1.4610     3.3330 ca         1 E82      -0.133600
     13 C27         -1.2270     1.0400     4.6550 ca         1 E82      -0.049000
     14 C29         -1.6870     1.9290     5.6210 cp         1 E82      -0.079000
     15 C30         -2.0130     3.2360     5.2610 ca         1 E82      -0.099000
     16 O25         -0.3220    -0.6200     2.6040 o          1 E82      -0.605100
     17 N1          -0.4830     0.9310     1.0230 ns         1 E82      -0.566900
     18 C8           0.1500    -0.4190    -2.4420 c3         1 E82      -0.077400
     19 C5          -0.5370     0.4280    -1.3640 c3         1 E82      -0.093400
     20 C34         -1.4210     2.7740     2.9870 ca         1 E82      -0.082000
     21 C32         -1.8810     3.6500     3.9500 ca         1 E82      -0.128000
     22 C36         -1.8300     1.4880     7.0300 cp         1 E82      -0.003000
     23 C40         -2.0980     0.6640     9.6590 ca         1 E82      -0.098000
     24 C39         -2.4160     1.9640     9.3090 ca         1 E82      -0.193300
     25 C37         -2.2900     2.3780     7.9980 ca         1 E82      -0.105000
     26 N49         -1.7720     3.6280    10.9590 nz         1 E82      -0.810600
     27 H1          -0.3550    -0.9990     0.2230 h1         1 E82       0.092700
     28 H2          -1.3920    -1.2730     8.7980 ha         1 E82       0.166000
     29 H3          -1.1460    -0.5140     6.6410 ha         1 E82       0.168000
     30 H4          -3.5800     3.6450     9.8990 hx         1 E82       0.111700
     31 H5          -3.4460     2.3770    11.1250 hx         1 E82       0.111700
     32 H6           1.6610     1.0120    -2.9240 hc         1 E82       0.058200
     33 H7           2.1430    -0.7020    -3.1560 hc         1 E82       0.058200
     34 H8           1.5710     0.0010     2.1420 ha         1 E82       0.144000
     35 H9           4.0270     0.0880     2.2550 ha         1 E82       0.126000
     36 H10          5.3550     0.0720     0.1770 ha         1 E82       0.131000
     37 H11          4.3780    -0.0240    -1.8790 ha         1 E82       0.137000
     38 H12         -0.9730     0.0230     4.9300 ha         1 E82       0.161000
     39 H13         -2.3730     3.9290     6.0130 ha         1 E82       0.121000
     40 H14         -0.7440     1.8630     0.7680 hn         1 E82       0.316500
     41 H15         -0.3330    -0.2530    -3.3980 hc         1 E82       0.053200
     42 H16          0.0900    -1.4670    -2.1740 hc         1 E82       0.053200
     43 H17         -0.3160     1.4760    -1.5300 hc         1 E82       0.048700
     44 H18         -1.6070     0.2660    -1.4010 hc         1 E82       0.048700
     45 H19         -1.3200     3.1040     1.9610 ha         1 E82       0.141000
     46 H20         -2.1340     4.6680     3.6780 ha         1 E82       0.145000
     47 H21         -2.2030     0.3410    10.6880 ha         1 E82       0.135000
     48 H22         -2.5440     3.3950     7.7240 ha         1 E82       0.137000
     49 H23         -1.0740     2.9630    11.2260 hn         1 E82       0.454467
     50 H24         -2.0800     4.1320    11.7670 hn         1 E82       0.454467
     51 C24         -0.6080     0.5220     2.3010 c          1 E82       0.669700
     52 H493        -1.3860     4.2680    10.2930 hn         1 E82       0.454467
@<TRIPOS>BOND
     1    19    18 1
     2    19     1 1
     3    18     5 1
     4    16    51 2
     5    20    21 ar
     6    20    12 ar
     7    21    15 ar
     8    51    12 1
     9    51    17 1
    10     5     6 1
    11     1    17 1
    12     1     7 1
    13    12    13 ar
    14    15    14 ar
    15     7     6 ar
    16     7     8 ar
    17     6    11 ar
    18    13    14 ar
    19    14    22 1
    20     8     9 ar
    21    11    10 ar
    22    22    25 ar
    23    22     3 ar
    24    25    24 ar
    25    10     9 ar
    26     3     2 ar
    27    26     4 1
    28    24     4 1
    29    24    23 ar
    30     2    23 ar
    31     1    27 1
    32     2    28 1
    33     3    29 1
    34     4    30 1
    35     4    31 1
    36     5    32 1
    37     5    33 1
    38     8    34 1
    39     9    35 1
    40    10    36 1
    41    11    37 1
    42    13    38 1
    43    15    39 1
    44    17    40 1
    45    18    41 1
    46    18    42 1
    47    19    43 1
    48    19    44 1
    49    20    45 1
    50    21    46 1
    51    23    47 1
    52    25    48 1
    53    26    49 1
    54    26    50 1
    55    52    26 1
@<TRIPOS>SUBSTRUCTURE
     1 E82         1 TEMP              0 ****  ****    0 ROOT
