@<TRIPOS>MOLECULE
molecule
   44    47     1     0     0
SMALL
bcc


@<TRIPOS>ATOM
      1 N1           0.0000     0.0000     0.0000 na         1 E85      -0.125800
      2 N3           1.3990     0.0000     0.0000 nc         1 E85      -0.564100
      3 C4           1.8460     0.0000     1.2290 cd         1 E85       0.616800
      4 C5           0.6860    -0.0010     2.1170 ca         1 E85      -0.570500
      5 C6          -0.4510    -0.0020     1.2850 ca         1 E85       0.562800
      6 C8          -1.7830    -0.0010     3.1620 ca         1 E85       0.778900
      7 C15          0.3330    -0.8870     6.2340 ca         1 E85      -0.135000
      8 C17          0.1380    -1.0030     7.6020 ca         1 E85       0.129100
      9 C20          2.0260     0.4270     7.9940 ca         1 E85      -0.094000
     10 C22          2.2260     0.5400     6.6320 ca         1 E85      -0.180000
     11 C28          4.1950     0.1160     0.6620 ca         1 E85       0.191600
     12 O24         -0.8820    -1.7610     8.0820 oh         1 E85      -0.511100
     13 C18          0.9870    -0.3450     8.4800 ca         1 E85      -0.166000
     14 C14          1.3790    -0.1160     5.7470 ca         1 E85       0.149600
     15 C11          0.4990    -0.0010     3.5090 ca         1 E85       0.789200
     16 N10         -0.7440    -0.0020     3.9790 nb         1 E85      -0.817000
     17 N7          -1.6570    -0.0020     1.8530 nb         1 E85      -0.798000
     18 N26          3.1860    -0.0010     1.6220 nu         1 E85      -0.723600
     19 C36          3.9820     0.8740    -0.4830 ca         1 E85      -0.097000
     20 C34          4.9840     0.9910    -1.4260 ca         1 E85      -0.086000
     21 C32          6.1970     0.3560    -1.2320 ca         1 E85      -0.132000
     22 C31          6.4120    -0.3990    -0.0950 ca         1 E85      -0.169300
     23 C29          5.4150    -0.5200     0.8530 ca         1 E85      -0.163000
     24 C38          7.7350    -1.0900     0.1120 c3         1 E85       0.160100
     25 N41          8.6490    -0.1940     0.8310 nz         1 E85      -0.809600
     26 H1          -0.5790     0.0000    -0.8160 hn         1 E85       0.354700
     27 H2          -2.7790    -0.0030     3.5880 h5         1 E85       0.078100
     28 H3           2.5080     0.1190     4.0070 hn         1 E85       0.436800
     29 H4          -0.2740    -1.4680     5.5500 ha         1 E85       0.165000
     30 H5           2.6870     0.9390     8.6820 ha         1 E85       0.139000
     31 H6           3.0400     1.1460     6.2530 ha         1 E85       0.122000
     32 H7          -0.5580    -2.6170     8.3080 ho         1 E85       0.423000
     33 H8           0.8340    -0.4340     9.5480 ha         1 E85       0.148000
     34 H9           3.4250    -0.0940     2.5890 hn         1 E85       0.456800
     35 H10          3.0320     1.3720    -0.6350 ha         1 E85       0.186000
     36 H11          4.8190     1.5820    -2.3190 ha         1 E85       0.162000
     37 H12          6.9800     0.4500    -1.9750 ha         1 E85       0.135000
     38 H13          5.5840    -1.1120     1.7450 ha         1 E85       0.133000
     39 H14          8.1630    -1.3460    -0.8500 hx         1 E85       0.112700
     40 H15          7.5840    -1.9930     0.6910 hx         1 E85       0.112700
     41 H16          9.5530    -0.6180     0.8920 hn         1 E85       0.454133
     42 H17          8.2960    -0.0270     1.7530 hn         1 E85       0.454133
     43 N12          1.5820    -0.0020     4.3680 nu         1 E85      -0.761300
     44 H413         8.7200     0.6750     0.3400 hn         1 E85       0.454133
@<TRIPOS>BOND
     1    17     6 ar
     2    17     5 ar
     3     6    16 ar
     4     9    10 ar
     5     9    13 ar
     6    10    14 ar
     7     1     5 1
     8     1     2 1
     9     5     4 ar
    10    16    15 ar
    11     2     3 2
    12    13     8 ar
    13     4    15 ar
    14     4     3 1
    15    19    20 ar
    16    19    11 ar
    17    15    43 1
    18    14    43 1
    19    14     7 ar
    20    20    21 ar
    21     3    18 1
    22    18    11 1
    23    11    23 ar
    24     8     7 ar
    25     8    12 1
    26    21    22 ar
    27    23    22 ar
    28    22    24 1
    29    25    24 1
    30     1    26 1
    31     6    27 1
    32    43    28 1
    33     7    29 1
    34     9    30 1
    35    10    31 1
    36    12    32 1
    37    13    33 1
    38    18    34 1
    39    19    35 1
    40    20    36 1
    41    21    37 1
    42    23    38 1
    43    24    39 1
    44    24    40 1
    45    25    41 1
    46    25    42 1
    47    44    25 1
@<TRIPOS>SUBSTRUCTURE
     1 E85         1 TEMP              0 ****  ****    0 ROOT
