@<TRIPOS>MOLECULE
E85
   44    47     1     0     0
SMALL
bcc


@<TRIPOS>ATOM
      1 N1           0.0000     0.0000     0.0000 na         1 E85       0.360200
      2 N3           1.3990     0.0000     0.0000 nc         1 E85      -0.706100
      3 C4           1.8460     0.0000     1.2290 cd         1 E85       0.493800
      4 C5           0.6860    -0.0010     2.1170 ca         1 E85      -0.585500
      5 C6          -0.4510    -0.0020     1.2850 ca         1 E85       0.356800
      6 C8          -1.7830    -0.0010     3.1620 ca         1 E85       0.730900
      7 C15          0.3330    -0.8870     6.2340 ca         1 E85      -0.123000
      8 C17          0.1380    -1.0030     7.6020 ca         1 E85       0.152100
      9 C20          2.0260     0.4270     7.9940 ca         1 E85      -0.057000
     10 C22          2.2260     0.5400     6.6320 ca         1 E85      -0.158000
     11 C28          4.1950     0.1160     0.6620 ca         1 E85       0.039600
     12 O24         -0.8820    -1.7610     8.0820 oh         1 E85      -0.491100
     13 C18          0.9870    -0.3450     8.4800 ca         1 E85      -0.146000
     14 C14          1.3790    -0.1160     5.7470 ca         1 E85      -0.004400
     15 C11          0.4990    -0.0010     3.5090 ca         1 E85       0.604200
     16 N10         -0.7440    -0.0020     3.9790 nb         1 E85      -0.723000
     17 N7          -1.6570    -0.0020     1.8530 nb         1 E85      -0.687000
     18 N26          3.1860    -0.0010     1.6220 nu         1 E85      -0.258600
     19 C36          3.9820     0.8740    -0.4830 ca         1 E85      -0.069000
     20 C34          4.9840     0.9910    -1.4260 ca         1 E85      -0.048000
     21 C32          6.1970     0.3560    -1.2320 ca         1 E85      -0.105000
     22 C31          6.4120    -0.3990    -0.0950 ca         1 E85      -0.183300
     23 C29          5.4150    -0.5200     0.8530 ca         1 E85      -0.137000
     24 C38          7.7350    -1.0900     0.1120 c3         1 E85       0.037100
     25 N41          8.6490    -0.1940     0.8310 nz         1 E85       0.074400
     26 H1          -0.5790     0.0000    -0.8160 hn         1 E85       0.164700
     27 H2          -2.7790    -0.0030     3.5880 h5         1 E85       0.007100
     28 H3           2.5080     0.1190     4.0070 hn         1 E85       0.270800
     29 H4          -0.2740    -1.4680     5.5500 ha         1 E85       0.141000
     30 H5           2.6870     0.9390     8.6820 ha         1 E85       0.106000
     31 H6           3.0400     1.1460     6.2530 ha         1 E85       0.098000
     32 H7          -0.5580    -2.6170     8.3080 ho         1 E85       0.405000
     33 H8           0.8340    -0.4340     9.5480 ha         1 E85       0.120000
     34 H9           3.4250    -0.0940     2.5890 hn         1 E85       0.288800
     35 H10          3.0320     1.3720    -0.6350 ha         1 E85       0.155000
     36 H11          4.8190     1.5820    -2.3190 ha         1 E85       0.125000
     37 H12          6.9800     0.4500    -1.9750 ha         1 E85       0.108000
     38 H13          5.5840    -1.1120     1.7450 ha         1 E85       0.109000
     39 H14          8.1630    -1.3460    -0.8500 hx         1 E85       0.081700
     40 H15          7.5840    -1.9930     0.6910 hx         1 E85       0.081700
     41 H16          9.5530    -0.6180     0.8920 hn         1 E85       0.221800
     42 H17          8.2960    -0.0270     1.7530 hn         1 E85       0.221800
     43 N12          1.5820    -0.0020     4.3680 nu         1 E85      -0.295300
     44 H413         8.7200     0.6750     0.3400 hn         1 E85       0.221800
@<TRIPOS>BOND
     1     1     2 1   
     2     1     5 1   
     3     1    26 1   
     4     2     3 2   
     5     3     4 1   
     6     3    18 1   
     7     4     5 ar  
     8     4    15 ar  
     9     5    17 ar  
    10     6    16 ar  
    11     6    17 ar  
    12     6    27 1   
    13     7     8 ar  
    14     7    14 ar  
    15     7    29 1   
    16     8    12 1   
    17     8    13 ar  
    18     9    10 ar  
    19     9    13 ar  
    20     9    30 1   
    21    10    14 ar  
    22    10    31 1   
    23    11    18 1   
    24    11    19 ar  
    25    11    23 ar  
    26    12    32 1   
    27    13    33 1   
    28    14    43 1   
    29    15    16 ar  
    30    15    43 1   
    31    18    34 1   
    32    19    20 ar  
    33    19    35 1   
    34    20    21 ar  
    35    20    36 1   
    36    21    22 ar  
    37    21    37 1   
    38    22    23 ar  
    39    22    24 1   
    40    23    38 1   
    41    24    25 1   
    42    24    39 1   
    43    24    40 1   
    44    25    41 1   
    45    25    42 1   
    46    25    44 1   
    47    28    43 1   
@<TRIPOS>SUBSTRUCTURE
     1 E85         1 TEMP              0 ****  ****    0 ROOT
