@<TRIPOS>MOLECULE
E86
   54    57     1     0     0
SMALL
bcc


@<TRIPOS>ATOM
      1 C1           0.0000     0.0000     0.0000 c3         1 E86       0.076200
      2 C2           1.5070     0.0000     0.0000 ca         1 E86      -0.377900
      3 C3           2.2150     0.0000     1.1880 ca         1 E86       0.479200
      4 N4           3.5380     0.0000     1.1550 nb         1 E86      -0.687000
      5 C5           4.1910    -0.0010     0.0010 ca         1 E86       0.696900
      6 N6           5.5770    -0.0000     0.0100 nu         1 E86      -0.284300
      7 C7           6.2680    -0.1310     1.2190 ca         1 E86       0.016600
      8 C8           5.6510    -0.7210     2.3130 ca         1 E86      -0.134000
      9 C9           6.3360    -0.8500     3.5060 ca         1 E86      -0.073000
     10 C10          7.6360    -0.3910     3.6100 ca         1 E86      -0.123000
     11 C11          8.2550     0.1980     2.5220 ca         1 E86      -0.075000
     12 C12          7.5770     0.3240     1.3240 ca         1 E86      -0.081600
     13 Cl13         8.3540     1.0620    -0.0410 cl         1 E86      -0.031400
     14 N14          3.5540    -0.0010    -1.1590 nb         1 E86      -0.679000
     15 C15          2.2230    -0.0050    -1.2010 ca         1 E86       0.569800
     16 C16          1.5110    -0.0060    -2.5000 cc         1 E86      -0.258500
     17 C17          1.8310    -0.7620    -3.6070 cd         1 E86      -0.277300
     18 N18          0.9490    -0.4790    -4.5850 na         1 E86       0.431900
     19 C20          0.0510     0.4590    -4.1250 cd         1 E86      -0.416900
     20 C21          0.3760     0.7620    -2.8330 cc         1 E86      -0.053000
     21 C22         -1.0660     1.0270    -4.8870 c          1 E86       0.638700
     22 O23         -1.7960     1.8530    -4.3720 o          1 E86      -0.648100
     23 N24         -1.2820     0.6360    -6.1580 ns         1 E86      -0.199900
     24 C25         -2.3980     1.2040    -6.9200 c3         1 E86       0.081000
     25 C27         -3.6760     0.4200    -6.6150 c3         1 E86       0.206400
     26 O28         -3.5370    -0.9200    -7.0900 oh         1 E86      -0.601800
     27 C29         -2.0950     1.1170    -8.3940 ca         1 E86      -0.106300
     28 C30         -1.4900    -0.0130    -8.9100 ca         1 E86      -0.086500
     29 C31         -1.2130    -0.0930   -10.2620 ca         1 E86      -0.099500
     30 C32         -1.5410     0.9590   -11.0980 ca         1 E86      -0.096000
     31 C33         -2.1460     2.0900   -10.5810 ca         1 E86      -0.099500
     32 C34         -2.4280     2.1670    -9.2300 ca         1 E86      -0.086500
     33 H1          -0.3610    -0.6890    -0.7540 hc         1 E86       0.012033
     34 H1A         -0.3610    -0.3080     0.9740 hc         1 E86       0.012033
     35 H1B         -0.3610     0.9970    -0.2200 hc         1 E86       0.012033
     36 H3           1.6920     0.0010     2.1370 h4         1 E86      -0.014900
     37 HN6          6.0820     0.0680    -0.8510 hn         1 E86       0.299800
     38 H8           4.6320    -1.0800     2.2320 ha         1 E86       0.160000
     39 H9           5.8540    -1.3110     4.3590 ha         1 E86       0.102000
     40 H10          8.1710    -0.4910     4.5470 ha         1 E86       0.105000
     41 H11          9.2740     0.5540     2.6070 ha         1 E86       0.112000
     42 H17          2.6530    -1.4640    -3.6780 h4         1 E86       0.154000
     43 H21         -0.1370     1.4660    -2.1890 ha         1 E86       0.148000
     44 HN24        -0.6650    -0.0220    -6.5910 hn         1 E86       0.174500
     45 H25         -2.5350     2.2410    -6.6400 h1         1 E86       0.064700
     46 H27         -3.8460     0.4080    -5.5450 h1         1 E86       0.002700
     47 H27A        -4.5160     0.8930    -7.1090 h1         1 E86       0.002700
     48 HO28        -4.3250    -1.4030    -6.9030 ho         1 E86       0.394000
     49 H30         -1.2330    -0.8370    -8.2550 ha         1 E86       0.108500
     50 H31         -0.7380    -0.9790   -10.6670 ha         1 E86       0.103500
     51 H32         -1.3220     0.8980   -12.1570 ha         1 E86       0.103000
     52 H33         -2.4050     2.9130   -11.2360 ha         1 E86       0.103500
     53 H34         -2.9020     3.0530    -8.8250 ha         1 E86       0.108500
     54 HN18         0.9470    -0.8840    -5.5010 hn         1 E86       0.107700
@<TRIPOS>BOND
     1     1     2 1   
     2     1    33 1   
     3     1    34 1   
     4     1    35 1   
     5     2     3 ar  
     6     2    15 ar  
     7     3     4 ar  
     8     3    36 1   
     9     4     5 ar  
    10     5     6 1   
    11     5    14 ar  
    12     6     7 1   
    13     6    37 1   
    14     7     8 ar  
    15     7    12 ar  
    16     8     9 ar  
    17     8    38 1   
    18     9    10 ar  
    19     9    39 1   
    20    10    11 ar  
    21    10    40 1   
    22    11    12 ar  
    23    11    41 1   
    24    12    13 1   
    25    14    15 ar  
    26    15    16 1   
    27    16    17 2   
    28    16    20 1   
    29    17    18 1   
    30    17    42 1   
    31    18    19 1   
    32    18    54 1   
    33    19    20 2   
    34    19    21 1   
    35    20    43 1   
    36    21    22 2   
    37    21    23 1   
    38    23    24 1   
    39    23    44 1   
    40    24    25 1   
    41    24    27 1   
    42    24    45 1   
    43    25    26 1   
    44    25    46 1   
    45    25    47 1   
    46    26    48 1   
    47    27    28 ar  
    48    27    32 ar  
    49    28    29 ar  
    50    28    49 1   
    51    29    30 ar  
    52    29    50 1   
    53    30    31 ar  
    54    30    51 1   
    55    31    32 ar  
    56    31    52 1   
    57    32    53 1   
@<TRIPOS>SUBSTRUCTURE
     1 E86         1 TEMP              0 ****  ****    0 ROOT
