@<TRIPOS>MOLECULE
molecule
  137   136     1     0     0
SMALL
bcc


@<TRIPOS>ATOM
      1 C2           0.0000     0.0000     0.0000 c3         1 E87      -0.156400
      2 C10          8.1620    -0.0020    -5.7670 c3         1 E87      -0.092100
      3 C3           1.5300     0.0000     0.0000 c3         1 E87      -0.066400
      4 C5           3.5700    -0.0000    -1.4420 c3         1 E87      -0.080400
      5 C7           5.6110    -0.0010    -2.8840 c3         1 E87      -0.082400
      6 C8           6.1210    -0.0010    -4.3250 c3         1 E87      -0.081400
      7 N           -1.8280     0.0000     1.6660 ns         1 E87      -0.571900
      8 CA          -2.3170     0.0010     3.0470 c3         1 E87       0.143700
      9 C           -2.3690    -1.4360     3.5710 c3         1 E87       0.122400
     10 O           -3.3360    -2.1790     2.8270 oh         1 E87      -0.618800
     11 CB          -3.7190     0.6100     3.0910 c3         1 E87      -0.016300
     12 SG          -3.6590     2.3140     2.4710 ss         1 E87      -0.307200
     13 C1          -0.5030     0.0000     1.4200 c          1 E87       0.662100
     14 C15         -3.3960     5.3400     2.5110 c          1 E87       0.629100
     15 C21         -2.4650     6.2200     3.3050 c3         1 E87      -0.121400
     16 C31         -1.0940     6.2540     2.6270 c3         1 E87      -0.073400
     17 C4           2.0410    -0.0010    -1.4420 c3         1 E87      -0.085400
     18 C41         -0.1490     7.1470     3.4330 c3         1 E87      -0.083400
     19 C51          1.2220     7.1810     2.7560 c3         1 E87      -0.080400
     20 C6           4.0810    -0.0010    -2.8840 c3         1 E87      -0.082400
     21 C61          2.1670     8.0750     3.5620 c3         1 E87      -0.081400
     22 C71          3.5380     8.1090     2.8840 c3         1 E87      -0.082400
     23 C81          4.4840     9.0020     3.6900 c3         1 E87      -0.082400
     24 C9           7.6510    -0.0010    -4.3250 c3         1 E87      -0.084400
     25 CC1          5.8550     9.0350     3.0130 c3         1 E87      -0.082400
     26 O1          -3.0030     4.7960     1.5060 o          1 E87      -0.534000
     27 O11         -9.3870     5.3810     2.9640 o          1 E87      -0.550000
     28 O2           0.2850     0.0010     2.3420 o          1 E87      -0.623100
     29 O21         -4.6630     5.1610     2.9200 os         1 E87      -0.417900
     30 C90          6.8000     9.9280     3.8190 c3         1 E87      -0.082400
     31 C91        -17.3060     6.0060    11.0100 c3         1 E87      -0.082400
     32 C92          8.1720     9.9620     3.1410 c3         1 E87      -0.082400
     33 C93        -18.7590     6.4840    11.0400 c3         1 E87      -0.082400
     34 C94          9.1170    10.8560     3.9470 c3         1 E87      -0.081400
     35 C95        -19.3210     6.3170    12.4530 c3         1 E87      -0.081400
     36 C96         10.4880    10.8900     3.2700 c3         1 E87      -0.084400
     37 C97        -20.7740     6.7940    12.4840 c3         1 E87      -0.084400
     38 C98         11.4330    11.7830     4.0760 c3         1 E87      -0.092100
     39 C99        -21.3360     6.6280    13.8970 c3         1 E87      -0.092100
     40 CA1         -8.6910     4.9290     3.8420 c          1 E87       0.630100
     41 CA2         -6.9590     4.7590     2.2140 c3         1 E87       0.152400
     42 CA3         -9.2440     4.7650     5.2340 c3         1 E87      -0.125400
     43 CA4         -5.5030     4.3010     2.1060 c3         1 E87       0.166100
     44 CA5        -10.6970     5.2420     5.2650 c3         1 E87      -0.072400
     45 CA6         -5.3840     2.8570     2.5990 c3         1 E87      -0.016300
     46 CA7        -11.2590     5.0750     6.6780 c3         1 E87      -0.084400
     47 CA8        -12.7130     5.5520     6.7080 c3         1 E87      -0.080400
     48 CA9        -13.2750     5.3860     8.1220 c3         1 E87      -0.082400
     49 CB2        -14.7280     5.8630     8.1520 c3         1 E87      -0.081400
     50 CB3        -15.2900     5.6970     9.5650 c3         1 E87      -0.082400
     51 CB4        -16.7430     6.1730     9.5960 c3         1 E87      -0.082400
     52 H1          -0.3610    -0.8840    -0.5110 hc         1 E87       0.062200
     53 H2          -0.3610     0.8840    -0.5110 hc         1 E87       0.062200
     54 H3           7.8070     0.8860    -6.2770 hc         1 E87       0.032367
     55 H4           9.2460    -0.0080    -5.7670 hc         1 E87       0.032367
     56 H5           7.7970    -0.8830    -6.2800 hc         1 E87       0.032367
     57 H6           1.8910     0.8850     0.5100 hc         1 E87       0.057200
     58 H7           1.8910    -0.8840     0.5110 hc         1 E87       0.057200
     59 H8           3.9320    -0.8840    -0.9300 hc         1 E87       0.043200
     60 H9           3.9300     0.8850    -0.9320 hc         1 E87       0.043200
     61 H10          5.9720     0.8830    -2.3730 hc         1 E87       0.041200
     62 H11          5.9720    -0.8860    -2.3730 hc         1 E87       0.041200
     63 H12          5.7600     0.8830    -4.8360 hc         1 E87       0.040700
     64 H13          5.7600    -0.8860    -4.8360 hc         1 E87       0.040700
     65 H14         -2.4780    -0.0050     0.9050 hn         1 E87       0.326500
     66 H15         -1.6490     0.5880     3.6660 h1         1 E87       0.095700
     67 H16         -2.6460    -1.4290     4.6180 h1         1 E87       0.036700
     68 H17         -1.3950    -1.8970     3.4580 h1         1 E87       0.036700
     69 H18         -3.3890    -3.0570     3.1680 ho         1 E87       0.405000
     70 H19         -4.0810     0.6100     4.1120 h1         1 E87       0.069700
     71 H20         -4.3870     0.0240     2.4720 h1         1 E87       0.069700
     72 H21         -2.8700     7.2240     3.3530 hc         1 E87       0.072200
     73 H22         -2.3630     5.8240     4.3080 hc         1 E87       0.072200
     74 H23         -1.1970     6.6500     1.6240 hc         1 E87       0.060700
     75 H24         -0.6900     5.2500     2.5790 hc         1 E87       0.060700
     76 H25          1.6810    -0.8860    -1.9520 hc         1 E87       0.038700
     77 H26          1.6790     0.8830    -1.9540 hc         1 E87       0.038700
     78 H27         -0.5530     8.1510     3.4810 hc         1 E87       0.040200
     79 H28         -0.0460     6.7510     4.4360 hc         1 E87       0.040200
     80 H29          1.6260     6.1770     2.7080 hc         1 E87       0.044700
     81 H30          1.1190     7.5770     1.7520 hc         1 E87       0.044700
     82 H31          3.7200    -0.8860    -3.3940 hc         1 E87       0.040200
     83 H32          3.7200     0.8830    -3.3950 hc         1 E87       0.040200
     84 H33          1.7620     9.0780     3.6090 hc         1 E87       0.040700
     85 H34          2.2700     7.6790     4.5650 hc         1 E87       0.040700
     86 H35          3.9430     7.1050     2.8360 hc         1 E87       0.042200
     87 H36          3.4360     8.5050     1.8810 hc         1 E87       0.042200
     88 H37          4.0790    10.0060     3.7370 hc         1 E87       0.040700
     89 H38          4.5860     8.6060     4.6930 hc         1 E87       0.040700
     90 H39          8.0120    -0.8860    -3.8140 hc         1 E87       0.039700
     91 H40          8.0120     0.8830    -3.8150 hc         1 E87       0.039700
     92 H41          6.2590     8.0310     2.9660 hc         1 E87       0.041200
     93 H42          5.7530     9.4310     2.0090 hc         1 E87       0.041200
     94 H43          6.9030     9.5320     4.8220 hc         1 E87       0.040700
     95 H44          6.3960    10.9320     3.8660 hc         1 E87       0.040700
     96 H45        -16.7180     6.5940    11.7040 hc         1 E87       0.040700
     97 H46        -17.2630     4.9620    11.2940 hc         1 E87       0.040700
     98 H47          8.5760     8.9590     3.0930 hc         1 E87       0.041200
     99 H48          8.0690    10.3580     2.1380 hc         1 E87       0.041200
    100 H49        -18.8010     7.5280    10.7550 hc         1 E87       0.040700
    101 H50        -19.3470     5.8960    10.3460 hc         1 E87       0.040700
    102 H51          8.7130    11.8600     3.9950 hc         1 E87       0.040700
    103 H52          9.2200    10.4600     4.9500 hc         1 E87       0.040700
    104 H53        -18.7330     6.9060    13.1480 hc         1 E87       0.040700
    105 H54        -19.2780     5.2730    12.7390 hc         1 E87       0.040700
    106 H55         10.3850    11.2860     2.2670 hc         1 E87       0.039700
    107 H56         10.8920     9.8860     3.2220 hc         1 E87       0.039700
    108 H57        -21.3620     6.2050    11.7900 hc         1 E87       0.039700
    109 H58        -20.8180     7.8380    12.1980 hc         1 E87       0.039700
    110 H59         11.5370    11.3870     5.0780 hc         1 E87       0.032367
    111 H60         12.4030    11.8080     3.5950 hc         1 E87       0.032367
    112 H61         11.0280    12.7870     4.1240 hc         1 E87       0.032367
    113 H62        -22.3650     6.9650    13.9180 hc         1 E87       0.032367
    114 H63        -21.2910     5.5840    14.1830 hc         1 E87       0.032367
    115 H64        -20.7480     7.2180    14.5900 hc         1 E87       0.032367
    116 H65         -7.5720     4.1740     1.5400 h1         1 E87       0.065200
    117 H66         -7.0280     5.8070     1.9490 h1         1 E87       0.065200
    118 H67         -9.2010     3.7210     5.5190 hc         1 E87       0.072700
    119 H68         -8.6560     5.3530     5.9270 hc         1 E87       0.072700
    120 H69         -5.1830     4.3570     1.0720 h1         1 E87       0.092700
    121 H70        -11.2850     4.6540     4.5710 hc         1 E87       0.059200
    122 H71        -10.7400     6.2860     4.9800 hc         1 E87       0.059200
    123 H72         -6.0110     2.2150     1.9920 h1         1 E87       0.073200
    124 H73         -5.7040     2.8020     3.6330 h1         1 E87       0.073200
    125 H74        -11.2160     4.0310     6.9630 hc         1 E87       0.041200
    126 H75        -10.6720     5.6640     7.3720 hc         1 E87       0.041200
    127 H76        -12.7560     6.5960     6.4230 hc         1 E87       0.044200
    128 H77        -13.3000     4.9640     6.0140 hc         1 E87       0.044200
    129 H78        -12.6870     5.9730     8.8160 hc         1 E87       0.041200
    130 H79        -13.2320     4.3410     8.4060 hc         1 E87       0.041200
    131 H80        -14.7710     6.9080     7.8670 hc         1 E87       0.041700
    132 H81        -15.3160     5.2750     7.4580 hc         1 E87       0.041700
    133 H82        -14.7030     6.2850    10.2600 hc         1 E87       0.040700
    134 H83        -15.2470     4.6520     9.8500 hc         1 E87       0.040700
    135 H84        -16.7870     7.2170     9.3110 hc         1 E87       0.041700
    136 H85        -17.3310     5.5840     8.9020 hc         1 E87       0.041700
    137 OB1         -7.4240     4.5730     3.5770 os         1 E87      -0.425900
@<TRIPOS>BOND
     1    11     8 1
     2    11    12 1
     3     9     8 1
     4     9    10 1
     5    27    40 2
     6     8     7 1
     7    12    45 1
     8    45    43 1
     9    40    42 1
    10    40   137 1
    11    44    42 1
    12    44    46 1
    13    43    41 1
    14    43    29 1
    15     7    13 1
    16    41   137 1
    17    46    47 1
    18    28    13 2
    19    13     1 1
    20    29    14 1
    21     1     3 1
    22    26    14 2
    23    47    48 1
    24    14    15 1
    25    48    49 1
    26     3    17 1
    27    15    16 1
    28    17     4 1
    29    49    50 1
    30    16    18 1
    31    50    51 1
    32     4    20 1
    33    18    19 1
    34    20     5 1
    35    51    31 1
    36    19    21 1
    37    31    33 1
    38     5     6 1
    39    21    22 1
    40    22    23 1
    41     6    24 1
    42    33    35 1
    43    23    25 1
    44    30    25 1
    45    30    32 1
    46    35    37 1
    47    32    34 1
    48     2    24 1
    49    38    36 1
    50    37    39 1
    51    34    36 1
    52     1    52 1
    53     1    53 1
    54     2    54 1
    55     2    55 1
    56     2    56 1
    57     3    57 1
    58     3    58 1
    59     4    59 1
    60     4    60 1
    61     5    61 1
    62     5    62 1
    63     6    63 1
    64     6    64 1
    65     7    65 1
    66     8    66 1
    67     9    67 1
    68     9    68 1
    69    10    69 1
    70    11    70 1
    71    11    71 1
    72    15    72 1
    73    15    73 1
    74    16    74 1
    75    16    75 1
    76    17    76 1
    77    17    77 1
    78    18    78 1
    79    18    79 1
    80    19    80 1
    81    19    81 1
    82    20    82 1
    83    20    83 1
    84    21    84 1
    85    21    85 1
    86    22    86 1
    87    22    87 1
    88    23    88 1
    89    23    89 1
    90    24    90 1
    91    24    91 1
    92    25    92 1
    93    25    93 1
    94    30    94 1
    95    30    95 1
    96    31    96 1
    97    31    97 1
    98    32    98 1
    99    32    99 1
   100    33   100 1
   101    33   101 1
   102    34   102 1
   103    34   103 1
   104    35   104 1
   105    35   105 1
   106    36   106 1
   107    36   107 1
   108    37   108 1
   109    37   109 1
   110    38   110 1
   111    38   111 1
   112    38   112 1
   113    39   113 1
   114    39   114 1
   115    39   115 1
   116    41   116 1
   117    41   117 1
   118    42   118 1
   119    42   119 1
   120    43   120 1
   121    44   121 1
   122    44   122 1
   123    45   123 1
   124    45   124 1
   125    46   125 1
   126    46   126 1
   127    47   127 1
   128    47   128 1
   129    48   129 1
   130    48   130 1
   131    49   131 1
   132    49   132 1
   133    50   133 1
   134    50   134 1
   135    51   135 1
   136    51   136 1
@<TRIPOS>SUBSTRUCTURE
     1 E87         1 TEMP              0 ****  ****    0 ROOT
