@<TRIPOS>MOLECULE
molecule
   50    52     1     0     0
SMALL
bcc


@<TRIPOS>ATOM
      1 N1           0.0000     0.0000     0.0000 nu         1 E88      -0.828900
      2 C5           1.9750     0.0000     1.4430 c3         1 E88      -0.066700
      3 C7           3.4990     0.1260     1.4450 c3         1 E88      -0.079100
      4 C15          1.9680    -1.2300    -0.7110 c          1 E88       0.888600
      5 C21         -0.6380     1.4630    -3.1870 ca         1 E88       0.528600
      6 C22         -2.0550     1.4780    -3.1960 ca         1 E88      -0.372600
      7 C28         -5.9870     0.8420    -0.4960 ca         1 E88      -0.174000
      8 O17          3.2870    -1.4420    -0.8320 o          1 E88      -0.833800
      9 O16          1.1830    -2.0260    -1.1700 o          1 E88      -0.833800
     10 C3           1.4650     0.0000     0.0000 c3         1 E88       0.124500
     11 C11          1.5700    -1.3080     2.1270 c3         1 E88      -0.079100
     12 C19         -0.6920     0.5060    -1.0860 ca         1 E88       0.987900
     13 N24         -2.0210     0.4930    -1.0570 nb         1 E88      -0.874000
     14 C23         -2.7390     0.9630    -2.0670 ca         1 E88       0.739200
     15 C43         -2.7340     1.9950    -4.3030 ca         1 E88      -0.092000
     16 C45         -2.0230     2.4780    -5.3630 ca         1 E88      -0.169000
     17 C47         -0.6310     2.4640    -5.3570 ca         1 E88      -0.099000
     18 C49          0.0610     1.9670    -4.2920 ca         1 E88      -0.177300
     19 N20         -0.0040     0.9690    -2.1130 nb         1 E88      -0.776000
     20 N25         -4.1170     0.9530    -2.0190 nu         1 E88      -0.769300
     21 C27         -4.7750     0.3370    -0.9510 ca         1 E88       0.199600
     22 C35         -4.2200    -0.7800    -0.3420 ca         1 E88      -0.068000
     23 C33         -4.8730    -1.3870     0.7120 ca         1 E88      -0.098000
     24 C31         -6.0790    -0.8820     1.1630 ca         1 E88      -0.142000
     25 C30         -6.6320     0.2340     0.5620 ca         1 E88      -0.184300
     26 C37         -7.9470     0.7810     1.0570 c3         1 E88       0.161100
     27 N40         -9.0500     0.1340     0.3330 nz         1 E88      -0.811600
     28 H1          -0.5000    -0.3330     0.8000 hn         1 E88       0.438800
     29 H2           1.5390     0.8760     1.9080 hc         1 E88       0.014700
     30 H3           3.8290     0.5000     2.4070 hc         1 E88       0.036700
     31 H4           3.8060     0.8130     0.6660 hc         1 E88       0.036700
     32 H5           3.9420    -0.8460     1.2640 hc         1 E88       0.036700
     33 H6          -6.4220     1.7160    -0.9660 ha         1 E88       0.125000
     34 H8           1.8260     0.8850    -0.5100 h1         1 E88       0.078700
     35 H9           1.7880    -2.1410     1.4700 hc         1 E88       0.036700
     36 H10          0.5090    -1.2880     2.3450 hc         1 E88       0.036700
     37 H11          2.1260    -1.4200     3.0500 hc         1 E88       0.036700
     38 H12         -3.8170     2.0110    -4.3190 ha         1 E88       0.095000
     39 H13         -2.5490     2.8780    -6.2220 ha         1 E88       0.119000
     40 H14         -0.0900     2.8530    -6.2100 ha         1 E88       0.130000
     41 H15          1.1440     1.9620    -4.3000 ha         1 E88       0.164000
     42 H16         -4.6470     1.3900    -2.7480 hn         1 E88       0.458800
     43 H17         -3.2750    -1.1770    -0.6950 ha         1 E88       0.210000
     44 H18         -4.4410    -2.2600     1.1860 ha         1 E88       0.161000
     45 H19         -6.5890    -1.3580     1.9920 ha         1 E88       0.123000
     46 H20         -8.0450     0.5820     2.1180 hx         1 E88       0.106700
     47 H21         -7.9800     1.8500     0.8860 hx         1 E88       0.106700
     48 H22         -8.9780     0.3460    -0.6420 hn         1 E88       0.449467
     49 H23         -9.9240     0.4730     0.6850 hn         1 E88       0.449467
     50 H403        -8.9990    -0.8570     0.4640 hn         1 E88       0.449467
@<TRIPOS>BOND
     1     3     2 1
     2    26    27 1
     3    26    25 1
     4     2    10 1
     5     2    11 1
     6    25     7 ar
     7    25    24 ar
     8     7    21 ar
     9     1    10 1
    10     1    12 1
    11    10     4 1
    12    24    23 ar
    13    12    13 ar
    14    12    19 ar
    15    13    14 ar
    16    21    20 1
    17    21    22 ar
    18    20    14 1
    19    19     5 ar
    20    14     6 ar
    21    23    22 ar
    22     5     6 ar
    23     5    18 ar
    24     6    15 ar
    25    18    17 ar
    26    15    16 ar
    27    17    16 ar
    28     4     9 1
    29     4     8 1
    30     1    28 1
    31     2    29 1
    32     3    30 1
    33     3    31 1
    34     3    32 1
    35     7    33 1
    36    10    34 1
    37    11    35 1
    38    11    36 1
    39    11    37 1
    40    15    38 1
    41    16    39 1
    42    17    40 1
    43    18    41 1
    44    20    42 1
    45    22    43 1
    46    23    44 1
    47    24    45 1
    48    26    46 1
    49    26    47 1
    50    27    48 1
    51    27    49 1
    52    50    27 1
@<TRIPOS>SUBSTRUCTURE
     1 E88         1 TEMP              0 ****  ****    0 ROOT
