@<TRIPOS>MOLECULE
E89
   42    45     1     0     0
SMALL
bcc


@<TRIPOS>ATOM
      1 C2         -0.1210    0.0270    0.0490 ca        1 E89     -0.063000
      2 C3          1.2740   -0.0010    0.0720 ca        1 E89     -0.180600
      3 C7          1.9470   -0.0310    1.3840 c         1 E89      0.717100
      4 O24         1.3630   -0.0350    2.4840 o         1 E89     -0.628500
      5 N8          3.3490   -0.0450    1.3780 n         1 E89     -0.504400
      6 C9          4.0560   -0.0810    0.1530 cc        1 E89      0.651800
      7 N25         5.4680   -0.2380    0.2370 nh        1 E89     -0.880800
      8 N10         3.4670   -0.0260   -1.0440 nd        1 E89     -0.670100
      9 C4          2.0710   -0.0090   -1.1150 ca        1 E89      0.183400
     10 C5          1.4490    0.0060   -2.3920 ca        1 E89     -0.015300
     11 C14         2.2310   -0.0160   -3.6580 c3        1 E89     -0.023100
     12 C15         2.6530    1.3860   -4.0730 c3        1 E89     -0.026100
     13 C16         3.3400    1.3770   -5.3930 ca        1 E89     -0.108300
     14 C21         2.6010    1.1680   -6.5670 ca        1 E89     -0.095500
     15 C20         3.2230    1.1690   -7.8090 ca        1 E89     -0.179000
     16 C19         4.6120    1.3830   -7.8810 ca        1 E89      0.117100
     17 O22         5.1360    1.3670   -9.1610 os        1 E89     -0.328900
     18 C23         6.5380    1.5730   -9.2660 c3        1 E89      0.114700
     19 C18         5.3620    1.5930   -6.7200 ca        1 E89     -0.179000
     20 C17         4.7180    1.5870   -5.4830 ca        1 E89     -0.095500
     21 C6          0.0510    0.0410   -2.4290 ca        1 E89      0.104400
     22 N13        -0.8370    0.0690   -3.5310 nc        1 E89     -0.577100
     23 C12        -2.0680    0.0920   -3.0010 cd        1 E89      0.441700
     24 N11        -2.0750    0.0840   -1.5960 na        1 E89     -0.294300
     25 C1         -0.7310    0.0490   -1.1980 ca        1 E89     -0.096200
     26 H2         -0.6900    0.0310    0.9910 ha        1 E89      0.163000
     27 HN8         3.8260   -0.1430    2.2460 hn        1 E89      0.336500
     28 H251        5.9230   -0.2100   -0.6520 hn        1 E89      0.408800
     29 H252        5.9010    0.3550    0.9120 hn        1 E89      0.408800
     30 H141        3.1420   -0.6620   -3.5440 hc        1 E89      0.066200
     31 H142        1.6120   -0.4700   -4.4800 hc        1 E89      0.066200
     32 H151        3.3280    1.8180   -3.2870 hc        1 E89      0.052700
     33 H152        1.7430    2.0420   -4.1340 hc        1 E89      0.052700
     34 H21         1.5150    1.0010   -6.5000 ha        1 E89      0.136000
     35 H20         2.6520    1.0060   -8.7330 ha        1 E89      0.140000
     36 H231        6.7290    1.5160  -10.3680 h1        1 E89      0.042367
     37 H232        7.0980    0.7700   -8.7280 h1        1 E89      0.042367
     38 H233        6.8200    2.5790   -8.8700 h1        1 E89      0.042367
     39 H18         6.4470    1.7600   -6.7670 ha        1 E89      0.140000
     40 H17         5.3060    1.7520   -4.5670 ha        1 E89      0.136000
     41 H12        -3.0010    0.1180   -3.5800 h5        1 E89      0.070800
     42 H11        -2.8570    0.0890   -1.0000 hn        1 E89      0.310700
@<TRIPOS>BOND
     1    1    2 ar
     2    1   25 ar
     3    1   26 1
     4    2    3 1
     5    2    9 ar
     6    3    4 2
     7    3    5 1
     8    5    6 1
     9    5   27 1
    10    6    7 1
    11    6    8 2
    12    7   28 1
    13    7   29 1
    14    8    9 1
    15    9   10 ar
    16   10   11 1
    17   10   21 ar
    18   11   12 1
    19   11   30 1
    20   11   31 1
    21   12   13 1
    22   12   32 1
    23   12   33 1
    24   13   14 ar
    25   13   20 ar
    26   14   15 ar
    27   14   34 1
    28   15   16 ar
    29   15   35 1
    30   16   17 1
    31   16   19 ar
    32   17   18 1
    33   18   36 1
    34   18   37 1
    35   18   38 1
    36   19   20 ar
    37   19   39 1
    38   20   40 1
    39   21   22 1
    40   21   25 ar
    41   22   23 2
    42   23   24 1
    43   23   41 1
    44   24   25 1
    45   24   42 1
@<TRIPOS>SUBSTRUCTURE
     1 E89         1 TEMP              0 ****  ****    0 ROOT
