@<TRIPOS>MOLECULE
molecule
   44    45     1     0     0
SMALL
bcc


@<TRIPOS>ATOM
      1 N1           0.0000     0.0000     0.0000 nz         1 E8B      -0.810600
      2 C4           1.4690     0.0000     0.0000 c3         1 E8B       0.160100
      3 C7           1.9720     0.0000     1.4210 ca         1 E8B      -0.191300
      4 C8           2.2010    -1.1960     2.0700 ca         1 E8B      -0.108000
      5 C10          2.6650    -1.1950     3.3830 cp         1 E8B       0.006000
      6 C13          2.6680     1.2050     3.3740 ca         1 E8B      -0.107000
      7 C15          2.2080     1.1980     2.0700 ca         1 E8B      -0.113000
      8 C17          2.9150    -2.4780     4.0860 cp         1 E8B      -0.055000
      9 C20          3.6040    -3.6790     6.0530 ca         1 E8B       0.075600
     10 C21          3.3770    -4.8800     5.3930 ca         1 E8B      -0.103000
     11 O30          5.3270    -5.4720     6.9970 o          1 E8B      -0.584100
     12 C29          4.9060    -4.6550     7.7880 c          1 E8B       0.660100
     13 C31          5.3150    -4.7270     9.2360 c3         1 E8B      -0.152400
     14 C34          6.2580    -5.9150     9.4420 c3         1 E8B      -0.061700
     15 C40          7.5550    -5.6750     8.6670 c3         1 E8B      -0.089600
     16 C36          6.5740    -6.0620    10.9310 c3         1 E8B      -0.089600
     17 N27          4.0720    -3.6820     7.3710 ns         1 E8B      -0.487100
     18 C18          3.3740    -2.4760     5.4010 ca         1 E8B      -0.145000
     19 C23          2.9170    -4.8810     4.0890 ca         1 E8B      -0.103000
     20 C25          2.6850    -3.6880     3.4340 ca         1 E8B      -0.136000
     21 C11          2.8960     0.0140     4.0350 ca         1 E8B      -0.079000
     22 H1          -0.3340     0.0310    -0.9430 hn         1 E8B       0.454133
     23 H2          -0.3340     0.8010     0.4990 hn         1 E8B       0.454133
     24 H4           1.8300     0.8850    -0.5110 hx         1 E8B       0.111700
     25 H5           1.8300    -0.8840    -0.5110 hx         1 E8B       0.111700
     26 H6           2.0920    -2.1320     1.5350 ha         1 E8B       0.142000
     27 H7           2.8490     2.1460     3.8780 ha         1 E8B       0.158000
     28 H8           2.0300     2.1350     1.5560 ha         1 E8B       0.134000
     29 H9           3.5570    -5.8190     5.9030 ha         1 E8B       0.175000
     30 H10          5.8210    -3.8110     9.5150 hc         1 E8B       0.064700
     31 H11          4.4340    -4.8550     9.8540 hc         1 E8B       0.064700
     32 H12          5.7840    -6.8190     9.0810 hc         1 E8B       0.066700
     33 H13          8.3960    -6.0240     9.2540 hc         1 E8B       0.039367
     34 H14          7.6670    -4.6160     8.4690 hc         1 E8B       0.039367
     35 H15          7.5200    -6.2160     7.7290 hc         1 E8B       0.039367
     36 H16          7.2080    -6.9280    11.0820 hc         1 E8B       0.039367
     37 H17          7.0850    -5.1740    11.2820 hc         1 E8B       0.039367
     38 H18          5.6510    -6.1900    11.4850 hc         1 E8B       0.039367
     39 H19          3.7580    -2.9820     8.0140 hn         1 E8B       0.327500
     40 H20          3.5500    -1.5380     5.9130 ha         1 E8B       0.134000
     41 H21          2.7390    -5.8210     3.5800 ha         1 E8B       0.146000
     42 H22          2.3250    -3.6920     2.4120 ha         1 E8B       0.118000
     43 H23          3.2560     0.0210     5.0560 ha         1 E8B       0.160000
     44 H131        -0.3340    -0.8320     0.4440 hn         1 E8B       0.454133
@<TRIPOS>BOND
     1    15    14 1
     2    11    12 2
     3    14    13 1
     4    14    16 1
     5    13    12 1
     6     6     7 ar
     7     6    21 ar
     8    12    17 1
     9     7     3 ar
    10    21     5 ar
    11     1     2 1
    12     3     2 1
    13     3     4 ar
    14    17     9 1
    15     5     4 ar
    16     5     8 1
    17    18     9 ar
    18    18     8 ar
    19     9    10 ar
    20     8    20 ar
    21    10    19 ar
    22    20    19 ar
    23     1    22 1
    24     1    23 1
    25     2    24 1
    26     2    25 1
    27     4    26 1
    28     6    27 1
    29     7    28 1
    30    10    29 1
    31    13    30 1
    32    13    31 1
    33    14    32 1
    34    15    33 1
    35    15    34 1
    36    15    35 1
    37    16    36 1
    38    16    37 1
    39    16    38 1
    40    17    39 1
    41    18    40 1
    42    19    41 1
    43    20    42 1
    44    21    43 1
    45    44     1 1
@<TRIPOS>SUBSTRUCTURE
     1 E8B         1 TEMP              0 ****  ****    0 ROOT
