@<TRIPOS>MOLECULE
molecule
   41    41     1     0     0
SMALL
bcc


@<TRIPOS>ATOM
      1 F1           0.0000     0.0000     0.0000 f          1 E8C      -0.128900
      2 CG1          1.3510     0.0000     0.0000 ca         1 E8C       0.170900
      3 CD1          2.0420     0.0000     1.1990 ca         1 E8C      -0.215000
      4 C3           3.4270     0.0000     1.1980 ca         1 E8C       0.166900
      5 F2           4.1040    -0.0000     2.3670 f          1 E8C      -0.131900
      6 C4           4.1170     0.0010    -0.0020 ca         1 E8C      -0.186000
      7 CG2          3.4250     0.0010    -1.1990 ca         1 E8C      -0.059000
      8 CB           2.0440    -0.0050    -1.1990 ca         1 E8C      -0.172300
      9 CA           1.2910    -0.0060    -2.5050 c3         1 E8C       0.186300
     10 N            0.7430    -1.3410    -2.7520 ns         1 E8C      -0.597900
     11 C8           0.0270    -1.5790    -3.8680 c          1 E8C       0.793100
     12 O           -0.1650    -0.6850    -4.6700 o          1 E8C      -0.659100
     13 N2          -0.4770    -2.8080    -4.0970 ns         1 E8C      -0.578900
     14 C9          -1.2570    -3.0670    -5.3100 c3         1 E8C       0.072700
     15 C10         -2.2020    -4.2460    -5.0680 c3         1 E8C      -0.089400
     16 C11         -3.2240    -3.8670    -3.9950 c3         1 E8C      -0.078700
     17 C12         -4.1270    -2.7500    -4.5230 c3         1 E8C      -0.091100
     18 C13         -4.0760    -5.0900    -3.6480 c3         1 E8C      -0.091100
     19 C14         -0.3210    -3.3980    -6.4450 c          1 E8C       0.653100
     20 O2           0.8760    -3.4150    -6.2590 o          1 E8C      -0.560100
     21 N3          -0.8180    -3.6740    -7.6670 ns         1 E8C      -0.474400
     22 O3           0.0600    -3.9840    -8.7340 oh         1 E8C      -0.363100
     23 H1           1.5010     0.0150     2.1370 ha         1 E8C       0.162000
     24 H2           5.2010     0.0030    -0.0030 ha         1 E8C       0.153000
     25 H3           3.9670    -0.0010    -2.1370 ha         1 E8C       0.153000
     26 H4           0.4820     0.7130    -2.4550 h1         1 E8C       0.065700
     27 H5           1.9640     0.2630    -3.3100 h1         1 E8C       0.065700
     28 H6           0.9190    -2.0830    -2.1040 hn         1 E8C       0.311500
     29 H7          -0.2850    -3.5540    -3.4570 hn         1 E8C       0.316500
     30 H8          -1.8350    -2.1870    -5.5620 h1         1 E8C       0.101700
     31 H9          -1.6310    -5.1050    -4.7350 hc         1 E8C       0.054200
     32 H10         -2.7180    -4.4900    -5.9890 hc         1 E8C       0.054200
     33 H11         -2.7060    -3.5230    -3.1080 hc         1 E8C       0.058700
     34 H12         -5.0560    -2.7440    -3.9670 hc         1 E8C       0.037200
     35 H13         -3.6280    -1.7960    -4.4050 hc         1 E8C       0.037200
     36 H14         -4.3360    -2.9210    -5.5730 hc         1 E8C       0.037200
     37 H15         -4.6500    -5.3880    -4.5170 hc         1 E8C       0.037200
     38 H16         -4.7500    -4.8430    -2.8370 hc         1 E8C       0.037200
     39 H17         -3.4310    -5.9060    -3.3450 hc         1 E8C       0.037200
     40 H18         -1.8030    -3.6090    -7.8330 hn         1 E8C       0.316500
     41 H19         -0.4120    -3.9550    -9.5490 ho         1 E8C       0.396000
@<TRIPOS>BOND
     1    22    21 1
     2    21    19 1
     3    20    19 2
     4    19    14 1
     5    12    11 2
     6     9    10 1
     7     9     8 1
     8    14    13 1
     9    14    15 1
    10    11    10 1
    11    11    13 1
    12     7     8 ar
    13     7     6 ar
    14     8     2 ar
    15    15    16 1
    16    16    17 1
    17    16    18 1
    18     6     4 ar
    19     2     1 1
    20     2     3 ar
    21     4     3 ar
    22     4     5 1
    23     3    23 1
    24     6    24 1
    25     7    25 1
    26     9    26 1
    27     9    27 1
    28    10    28 1
    29    13    29 1
    30    14    30 1
    31    15    31 1
    32    15    32 1
    33    16    33 1
    34    17    34 1
    35    17    35 1
    36    17    36 1
    37    18    37 1
    38    18    38 1
    39    18    39 1
    40    21    40 1
    41    22    41 1
@<TRIPOS>SUBSTRUCTURE
     1 E8C         1 TEMP              0 ****  ****    0 ROOT
