@<TRIPOS>MOLECULE
E8D
   40    43     1     0     0
SMALL
bcc


@<TRIPOS>ATOM
      1 C4           0.0000     0.0000     0.0000 ca         1 E8D      -0.430000
      2 C14          4.0430     0.4410    -2.5340 ca         1 E8D      -0.155500
      3 C5           1.4010     0.0000     0.0000 ca         1 E8D       0.551200
      4 C6          -0.0520    -0.2610    -2.3700 c          1 E8D       0.581500
      5 C11          0.0420    -0.3730     7.1140 ca         1 E8D       0.047100
      6 C7           1.4070    -0.6420    -2.3660 c3         1 E8D       0.085800
      7 C8           3.3360     0.5720    -1.3460 ca         1 E8D       0.028600
      8 C9           0.2550    -0.9140     4.7850 ca         1 E8D      -0.155000
      9 C10         -0.4210    -1.0370     5.9850 ca         1 E8D       0.118900
     10 C12          1.1840     0.4130     7.0370 ca         1 E8D       0.118900
     11 C13          1.8590     0.5360     5.8360 ca         1 E8D      -0.155000
     12 N2           0.0530    -0.0070     2.3310 nb         1 E8D      -0.690000
     13 C3          -0.6620    -0.0050     1.2130 ca         1 E8D       0.485200
     14 N3           2.0500     0.0000     1.1540 nb         1 E8D      -0.692000
     15 C1           1.3960    -0.1270     4.7080 ca         1 E8D       0.039600
     16 C2           1.3770    -0.0040     2.2980 ca         1 E8D       0.707900
     17 N4          -0.6940     0.0120    -1.2160 ns         1 E8D       0.008900
     18 N5           2.0700    -0.0070    -1.2170 nh         1 E8D      -0.269700
     19 O1          -0.6530    -0.2000    -3.4210 o          1 E8D      -0.655500
     20 O2          -0.6260    -0.4900     8.2930 oh         1 E8D      -0.472100
     21 F2          -1.5320    -1.8030     6.0600 f          1 E8D      -0.116400
     22 C15          5.2950     1.0090    -2.6560 ca         1 E8D      -0.066000
     23 C16          5.8450     1.7080    -1.5980 ca         1 E8D      -0.129000
     24 C17          5.1440     1.8420    -0.4140 ca         1 E8D      -0.066000
     25 C18          3.8890     1.2810    -0.2870 ca         1 E8D      -0.155500
     26 H1           3.6130    -0.1070    -3.3640 ha         1 E8D       0.129500
     27 H2           1.4990    -1.7190    -2.2850 h1         1 E8D       0.055700
     28 H3           1.8710    -0.3020    -3.2840 h1         1 E8D       0.055700
     29 H4          -0.1060    -1.4310     3.9040 ha         1 E8D       0.140500
     30 H5           2.7500     1.1500     5.7760 ha         1 E8D       0.140500
     31 H6           3.0800     0.0490     3.4850 hn         1 E8D       0.298800
     32 H7          -1.7450    -0.0080     1.2500 h4         1 E8D      -0.008900
     33 H8          -1.6720     0.2240    -1.2290 hn         1 E8D       0.182500
     34 H9          -0.2820    -1.2220     8.7790 ho         1 E8D       0.405000
     35 H10          5.8480     0.9070    -3.5830 ha         1 E8D       0.102000
     36 H11          6.8290     2.1510    -1.6960 ha         1 E8D       0.104000
     37 H12          5.5770     2.3920     0.4120 ha         1 E8D       0.102000
     38 H13          3.3390     1.3850     0.6410 ha         1 E8D       0.129500
     39 N1           2.0800    -0.0020     3.4930 nu         1 E8D      -0.286300
     40 F1           1.6340     1.0580     8.1350 f          1 E8D      -0.116400
@<TRIPOS>BOND
     1     1     3 ar  
     2     1    13 ar  
     3     1    17 1   
     4     2     7 ar  
     5     2    22 ar  
     6     2    26 1   
     7     3    14 ar  
     8     3    18 1   
     9     4     6 1   
    10     4    17 1   
    11     4    19 2   
    12     5     9 ar  
    13     5    10 ar  
    14     5    20 1   
    15     6    18 1   
    16     6    27 1   
    17     6    28 1   
    18     7    18 1   
    19     7    25 ar  
    20     8     9 ar  
    21     8    15 ar  
    22     8    29 1   
    23     9    21 1   
    24    10    11 ar  
    25    10    40 1   
    26    11    15 ar  
    27    11    30 1   
    28    12    13 ar  
    29    12    16 ar  
    30    13    32 1   
    31    14    16 ar  
    32    15    39 1   
    33    16    39 1   
    34    17    33 1   
    35    20    34 1   
    36    22    23 ar  
    37    22    35 1   
    38    23    24 ar  
    39    23    36 1   
    40    24    25 ar  
    41    24    37 1   
    42    25    38 1   
    43    31    39 1   
@<TRIPOS>SUBSTRUCTURE
     1 E8D         1 TEMP              0 ****  ****    0 ROOT
