@<TRIPOS>MOLECULE
molecule
   40    43     1     0     0
SMALL
bcc


@<TRIPOS>ATOM
      1 C4           0.0000     0.0000     0.0000 ca         1 E8D      -0.271000
      2 C14          4.0430     0.4410    -2.5340 ca         1 E8D      -0.169500
      3 C5           1.4010     0.0000     0.0000 ca         1 E8D       0.729200
      4 C6          -0.0520    -0.2610    -2.3700 c          1 E8D       0.686500
      5 C11          0.0420    -0.3730     7.1140 ca         1 E8D       0.007100
      6 C7           1.4070    -0.6420    -2.3660 c3         1 E8D       0.169800
      7 C8           3.3360     0.5720    -1.3460 ca         1 E8D       0.172600
      8 C9           0.2550    -0.9140     4.7850 ca         1 E8D      -0.195500
      9 C10         -0.4210    -1.0370     5.9850 ca         1 E8D       0.155400
     10 C12          1.1840     0.4130     7.0370 ca         1 E8D       0.155400
     11 C13          1.8590     0.5360     5.8360 ca         1 E8D      -0.195500
     12 N2           0.0530    -0.0070     2.3310 nb         1 E8D      -0.786000
     13 C3          -0.6620    -0.0050     1.2130 ca         1 E8D       0.482200
     14 N3           2.0500     0.0000     1.1540 nb         1 E8D      -0.805000
     15 C1           1.3960    -0.1270     4.7080 ca         1 E8D       0.208600
     16 C2           1.3770    -0.0040     2.2980 ca         1 E8D       0.939900
     17 N4          -0.6940     0.0120    -1.2160 ns         1 E8D      -0.451100
     18 N5           2.0700    -0.0070    -1.2170 nh         1 E8D      -0.679700
     19 O1          -0.6530    -0.2000    -3.4210 o          1 E8D      -0.616500
     20 O2          -0.6260    -0.4900     8.2930 oh         1 E8D      -0.494100
     21 F2          -1.5320    -1.8030     6.0600 f          1 E8D      -0.122900
     22 C15          5.2950     1.0090    -2.6560 ca         1 E8D      -0.098500
     23 C16          5.8450     1.7080    -1.5980 ca         1 E8D      -0.156000
     24 C17          5.1440     1.8420    -0.4140 ca         1 E8D      -0.098500
     25 C18          3.8890     1.2810    -0.2870 ca         1 E8D      -0.169500
     26 H1           3.6130    -0.1070    -3.3640 ha         1 E8D       0.148000
     27 H2           1.4990    -1.7190    -2.2850 h1         1 E8D       0.089200
     28 H3           1.8710    -0.3020    -3.2840 h1         1 E8D       0.089200
     29 H4          -0.1060    -1.4310     3.9040 ha         1 E8D       0.165500
     30 H5           2.7500     1.1500     5.7760 ha         1 E8D       0.165500
     31 H6           3.0800     0.0490     3.4850 hn         1 E8D       0.473800
     32 H7          -1.7450    -0.0080     1.2500 h4         1 E8D       0.040100
     33 H8          -1.6720     0.2240    -1.2290 hn         1 E8D       0.342500
     34 H9          -0.2820    -1.2220     8.7790 ho         1 E8D       0.420000
     35 H10          5.8480     0.9070    -3.5830 ha         1 E8D       0.132500
     36 H11          6.8290     2.1510    -1.6960 ha         1 E8D       0.131000
     37 H12          5.5770     2.3920     0.4120 ha         1 E8D       0.132500
     38 H13          3.3390     1.3850     0.6410 ha         1 E8D       0.148000
     39 N1           2.0800    -0.0020     3.4930 nu         1 E8D      -0.753300
     40 F1           1.6340     1.0580     8.1350 f          1 E8D      -0.122900
@<TRIPOS>BOND
     1    23    22 ar
     2    23    24 ar
     3    22     2 ar
     4    24    25 ar
     5     2     7 ar
     6    25     7 ar
     7     7    18 1
     8    21     9 1
     9     6    18 1
    10     6     4 1
    11    18     3 1
    12    19     4 2
    13     9     8 ar
    14     9     5 ar
    15    20     5 1
    16     4    17 1
    17     8    15 ar
    18     5    10 ar
    19     3    14 ar
    20     3     1 ar
    21    14    16 ar
    22    17     1 1
    23     1    13 ar
    24    15    11 ar
    25    15    39 1
    26    10    11 ar
    27    10    40 1
    28    16    39 1
    29    16    12 ar
    30    13    12 ar
    31     2    26 1
    32     6    27 1
    33     6    28 1
    34     8    29 1
    35    11    30 1
    36    39    31 1
    37    13    32 1
    38    17    33 1
    39    20    34 1
    40    22    35 1
    41    23    36 1
    42    24    37 1
    43    25    38 1
@<TRIPOS>SUBSTRUCTURE
     1 E8D         1 TEMP              0 ****  ****    0 ROOT
