@<TRIPOS>MOLECULE
E8F
   47    47     1     0     0
SMALL
bcc


@<TRIPOS>ATOM
      1 C1           0.0000     0.0000     0.0000 c3         1 E8F       0.061200
      2 C2           1.5070     0.0000     0.0000 ca         1 E8F      -0.082300
      3 CD1          2.1980     0.0000     1.1980 ca         1 E8F      -0.102000
      4 CG1          3.5810    -0.0000     1.1990 ca         1 E8F      -0.089000
      5 CB           4.2730     0.0010     0.0010 ca         1 E8F      -0.129300
      6 CA           5.7790     0.0020     0.0030 c3         1 E8F       0.129300
      7 N            6.2680    -1.3790     0.0020 ns         1 E8F      -0.214900
      8 C7           7.5940    -1.6240     0.0030 c          1 E8F       0.587100
      9 O            8.3830    -0.7000     0.0030 o          1 E8F      -0.710100
     10 N2           8.0440    -2.8940     0.0030 ns         1 E8F      -0.183900
     11 C8           9.4840    -3.1610     0.0030 c3         1 E8F      -0.039300
     12 C9           9.7470    -4.5400     0.6120 c3         1 E8F      -0.036400
     13 C10          9.3360    -4.5330     2.0860 c3         1 E8F      -0.057700
     14 C11          9.4820    -5.9430     2.6620 c3         1 E8F       0.002900
     15 C12         10.2360    -3.5690     2.8620 c3         1 E8F       0.002900
     16 C13         10.0020    -3.1300    -1.4120 c          1 E8F       0.557100
     17 O2           9.2420    -2.9080    -2.3310 o          1 E8F      -0.610100
     18 N3          11.3080    -3.3510    -1.6570 ns         1 E8F      -0.057400
     19 O3          11.7950    -3.3220    -2.9870 oh         1 E8F      -0.437100
     20 CG2          3.5810     0.0010    -1.1960 ca         1 E8F      -0.078000
     21 C15          2.1990    -0.0050    -1.1960 ca         1 E8F      -0.091300
     22 C16          1.4460    -0.0110    -2.5020 c3         1 E8F       0.062200
     23 H1          -0.3610     0.0110     1.0210 hc         1 E8F       0.009033
     24 H2          -0.3610    -0.8900    -0.5010 hc         1 E8F       0.009033
     25 H3          -0.3610     0.8790    -0.5200 hc         1 E8F       0.009033
     26 H4           1.6560    -0.0010     2.1360 ha         1 E8F       0.107000
     27 H5           4.1220    -0.0000     2.1370 ha         1 E8F       0.107000
     28 H6           6.1410     0.5140    -0.8810 h1         1 E8F       0.028200
     29 H7           6.1390     0.5120     0.8880 h1         1 E8F       0.028200
     30 H8           5.6180    -2.1400    -0.0170 hn         1 E8F       0.170500
     31 H9           7.3950    -3.6550    -0.0420 hn         1 E8F       0.170500
     32 H10          9.9920    -2.4040     0.5890 h1         1 E8F       0.075700
     33 H11         10.8020    -4.7750     0.5330 hc         1 E8F       0.024700
     34 H12          9.1700    -5.2860     0.0800 hc         1 E8F       0.024700
     35 H13          8.3050    -4.2120     2.1720 hc         1 E8F       0.030700
     36 H14          9.1160    -5.9550     3.6820 hc         1 E8F       0.006033
     37 H15         10.5260    -6.2310     2.6500 hc         1 E8F       0.006033
     38 H16          8.9080    -6.6390     2.0640 hc         1 E8F       0.006033
     39 H17          9.8670    -2.5570     2.7460 hc         1 E8F       0.006033
     40 H18         11.2480    -3.6310     2.4780 hc         1 E8F       0.006033
     41 H19         10.2320    -3.8370     3.9120 hc         1 E8F       0.006033
     42 H20         11.9390    -3.5090    -0.8970 hn         1 E8F       0.155500
     43 H21         12.7330    -3.2260    -2.9760 ho         1 E8F       0.390000
     44 H22          4.1230    -0.0010    -2.1340 ha         1 E8F       0.115000
     45 H23          0.8320     0.8790    -2.5680 hc         1 E8F       0.009367
     46 H24          2.1500    -0.0270    -3.3250 hc         1 E8F       0.009367
     47 H25          0.8140    -0.8890    -2.5500 hc         1 E8F       0.009367
@<TRIPOS>BOND
     1     1     2 1   
     2     1    23 1   
     3     1    24 1   
     4     1    25 1   
     5     2     3 ar  
     6     2    21 ar  
     7     3     4 ar  
     8     3    26 1   
     9     4     5 ar  
    10     4    27 1   
    11     5     6 1   
    12     5    20 ar  
    13     6     7 1   
    14     6    28 1   
    15     6    29 1   
    16     7     8 1   
    17     7    30 1   
    18     8     9 2   
    19     8    10 1   
    20    10    11 1   
    21    10    31 1   
    22    11    12 1   
    23    11    16 1   
    24    11    32 1   
    25    12    13 1   
    26    12    33 1   
    27    12    34 1   
    28    13    14 1   
    29    13    15 1   
    30    13    35 1   
    31    14    36 1   
    32    14    37 1   
    33    14    38 1   
    34    15    39 1   
    35    15    40 1   
    36    15    41 1   
    37    16    17 2   
    38    16    18 1   
    39    18    19 1   
    40    18    42 1   
    41    19    43 1   
    42    20    21 ar  
    43    20    44 1   
    44    21    22 1   
    45    22    45 1   
    46    22    46 1   
    47    22    47 1   
@<TRIPOS>SUBSTRUCTURE
     1 E8F         1 TEMP              0 ****  ****    0 ROOT
