@<TRIPOS>MOLECULE
molecule
   47    47     1     0     0
SMALL
bcc


@<TRIPOS>ATOM
      1 CD1          0.0000     0.0000     0.0000 c3         1 E8G      -0.053800
      2 CG1          1.5080     0.0000     0.0000 ca         1 E8G      -0.066300
      3 C3           2.1980     0.0000     1.1970 ca         1 E8G      -0.085300
      4 C4           1.4460     0.0000     2.5020 c3         1 E8G      -0.046800
      5 C5           3.5810    -0.0010     1.1970 ca         1 E8G      -0.115000
      6 C6           4.2720     0.0010    -0.0010 ca         1 E8G      -0.134000
      7 CG2          3.5800     0.0020    -1.1980 ca         1 E8G      -0.112000
      8 CB           2.1990    -0.0060    -1.1980 ca         1 E8G      -0.117300
      9 CA           1.4440    -0.0040    -2.5020 c3         1 E8G       0.179300
     10 N            0.9850     1.3550    -2.8000 ns         1 E8G      -0.598900
     11 C10          0.2840     1.5980    -3.9260 c          1 E8G       0.784100
     12 O            0.0330     0.6900    -4.6930 o          1 E8G      -0.669100
     13 N2          -0.1380     2.8490    -4.1990 ns         1 E8G      -0.591900
     14 C11         -0.8030     3.1340    -5.4720 c3         1 E8G       0.072700
     15 C12         -2.3080     2.9030    -5.3250 c3         1 E8G      -0.090400
     16 C13         -2.9870     3.0730    -6.6850 c3         1 E8G      -0.093700
     17 C14         -2.5340     1.9540    -7.6250 c3         1 E8G      -0.089100
     18 C15         -4.5050     3.0110    -6.5090 c3         1 E8G      -0.089100
     19 C16         -0.5510     4.5690    -5.8600 c          1 E8G       0.663100
     20 O2          -0.1960     5.3700    -5.0230 o          1 E8G      -0.580100
     21 N3          -0.7200     4.9610    -7.1390 ns         1 E8G      -0.470400
     22 O3          -0.3840     6.2810    -7.5240 oh         1 E8G      -0.362100
     23 H1          -0.3610    -0.6320    -0.8030 hc         1 E8G       0.047367
     24 H2          -0.3610     1.0110    -0.1460 hc         1 E8G       0.047367
     25 H3          -0.3610    -0.3790     0.9480 hc         1 E8G       0.047367
     26 H4           0.8850    -0.9220     2.5950 hc         1 E8G       0.044033
     27 H5           0.7640     0.8410     2.5250 hc         1 E8G       0.044033
     28 H6           2.1480     0.0810     3.3230 hc         1 E8G       0.044033
     29 H7           4.1230    -0.0010     2.1350 ha         1 E8G       0.132000
     30 H8           5.3550     0.0030    -0.0010 ha         1 E8G       0.132000
     31 H9           4.1220     0.0000    -2.1360 ha         1 E8G       0.134000
     32 H10          0.5900    -0.6650    -2.4260 h1         1 E8G       0.057700
     33 H11          2.0960    -0.3470    -3.2970 h1         1 E8G       0.057700
     34 H12          1.2360     2.1120    -2.1940 hn         1 E8G       0.316500
     35 H13          0.0210     3.5860    -3.5410 hn         1 E8G       0.332500
     36 H14         -0.4110     2.4780    -6.2400 h1         1 E8G       0.091700
     37 H15         -2.4860     1.9000    -4.9560 hc         1 E8G       0.066200
     38 H16         -2.7170     3.6230    -4.6250 hc         1 E8G       0.066200
     39 H17         -2.7120     4.0320    -7.1080 hc         1 E8G       0.049700
     40 H18         -3.0860     2.0180    -8.5550 hc         1 E8G       0.037533
     41 H19         -1.4750     2.0580    -7.8250 hc         1 E8G       0.037533
     42 H20         -2.7210     0.9940    -7.1590 hc         1 E8G       0.037533
     43 H21         -4.7770     2.0670    -6.0510 hc         1 E8G       0.037533
     44 H22         -4.8290     3.8270    -5.8750 hc         1 E8G       0.037533
     45 H23         -4.9850     3.0930    -7.4770 hc         1 E8G       0.037533
     46 H24         -1.0270     4.3020    -7.8270 hn         1 E8G       0.329500
     47 H25         -0.1330     6.2890    -8.4330 ho         1 E8G       0.397000
@<TRIPOS>BOND
     1    22    21 1
     2    20    19 2
     3    21    19 1
     4    19    14 1
     5    18    16 1
     6    14    15 1
     7    14    13 1
     8    15    16 1
     9    17    16 1
    10    13    11 1
    11    12    11 2
    12    11    10 1
    13    10     9 1
    14     9     8 1
    15     8     7 ar
    16     8     2 ar
    17     7     6 ar
    18     6     5 ar
    19     2     1 1
    20     2     3 ar
    21     5     3 ar
    22     3     4 1
    23     1    23 1
    24     1    24 1
    25     1    25 1
    26     4    26 1
    27     4    27 1
    28     4    28 1
    29     5    29 1
    30     6    30 1
    31     7    31 1
    32     9    32 1
    33     9    33 1
    34    10    34 1
    35    13    35 1
    36    14    36 1
    37    15    37 1
    38    15    38 1
    39    16    39 1
    40    17    40 1
    41    17    41 1
    42    17    42 1
    43    18    43 1
    44    18    44 1
    45    18    45 1
    46    21    46 1
    47    22    47 1
@<TRIPOS>SUBSTRUCTURE
     1 E8G         1 TEMP              0 ****  ****    0 ROOT
