@<TRIPOS>MOLECULE
E8G
   47    47     1     0     0
SMALL
bcc


@<TRIPOS>ATOM
      1 CD1          0.0000     0.0000     0.0000 c3         1 E8G       0.042200
      2 CG1          1.5080     0.0000     0.0000 ca         1 E8G      -0.070300
      3 C3           2.1980     0.0000     1.1970 ca         1 E8G      -0.090300
      4 C4           1.4460     0.0000     2.5020 c3         1 E8G       0.062200
      5 C5           3.5810    -0.0010     1.1970 ca         1 E8G      -0.090000
      6 C6           4.2720     0.0010    -0.0010 ca         1 E8G      -0.106000
      7 CG2          3.5800     0.0020    -1.1980 ca         1 E8G      -0.085000
      8 CB           2.1990    -0.0060    -1.1980 ca         1 E8G      -0.122300
      9 CA           1.4440    -0.0040    -2.5020 c3         1 E8G       0.123300
     10 N            0.9850     1.3550    -2.8000 ns         1 E8G      -0.215900
     11 C10          0.2840     1.5980    -3.9260 c          1 E8G       0.578100
     12 O            0.0330     0.6900    -4.6930 o          1 E8G      -0.719100
     13 N2          -0.1380     2.8490    -4.1990 ns         1 E8G      -0.201900
     14 C11         -0.8030     3.1340    -5.4720 c3         1 E8G      -0.038300
     15 C12         -2.3080     2.9030    -5.3250 c3         1 E8G      -0.040400
     16 C13         -2.9870     3.0730    -6.6850 c3         1 E8G      -0.074700
     17 C14         -2.5340     1.9540    -7.6250 c3         1 E8G       0.004900
     18 C15         -4.5050     3.0110    -6.5090 c3         1 E8G       0.004900
     19 C16         -0.5510     4.5690    -5.8600 c          1 E8G       0.567100
     20 O2          -0.1960     5.3700    -5.0230 o          1 E8G      -0.624100
     21 N3          -0.7200     4.9610    -7.1390 ns         1 E8G      -0.062400
     22 O3          -0.3840     6.2810    -7.5240 oh         1 E8G      -0.437100
     23 H1          -0.3610    -0.6320    -0.8030 hc         1 E8G       0.015700
     24 H2          -0.3610     1.0110    -0.1460 hc         1 E8G       0.015700
     25 H3          -0.3610    -0.3790     0.9480 hc         1 E8G       0.015700
     26 H4           0.8850    -0.9220     2.5950 hc         1 E8G       0.009700
     27 H5           0.7640     0.8410     2.5250 hc         1 E8G       0.009700
     28 H6           2.1480     0.0810     3.3230 hc         1 E8G       0.009700
     29 H7           4.1230    -0.0010     2.1350 ha         1 E8G       0.106000
     30 H8           5.3550     0.0030    -0.0010 ha         1 E8G       0.104000
     31 H9           4.1220     0.0000    -2.1360 ha         1 E8G       0.108000
     32 H10          0.5900    -0.6650    -2.4260 h1         1 E8G       0.030200
     33 H11          2.0960    -0.3470    -3.2970 h1         1 E8G       0.030200
     34 H12          1.2360     2.1120    -2.1940 hn         1 E8G       0.175500
     35 H13          0.0210     3.5860    -3.5410 hn         1 E8G       0.193500
     36 H14         -0.4110     2.4780    -6.2400 h1         1 E8G       0.068700
     37 H15         -2.4860     1.9000    -4.9560 hc         1 E8G       0.037200
     38 H16         -2.7170     3.6230    -4.6250 hc         1 E8G       0.037200
     39 H17         -2.7120     4.0320    -7.1080 hc         1 E8G       0.024700
     40 H18         -3.0860     2.0180    -8.5550 hc         1 E8G       0.006533
     41 H19         -1.4750     2.0580    -7.8250 hc         1 E8G       0.006533
     42 H20         -2.7210     0.9940    -7.1590 hc         1 E8G       0.006533
     43 H21         -4.7770     2.0670    -6.0510 hc         1 E8G       0.006533
     44 H22         -4.8290     3.8270    -5.8750 hc         1 E8G       0.006533
     45 H23         -4.9850     3.0930    -7.4770 hc         1 E8G       0.006533
     46 H24         -1.0270     4.3020    -7.8270 hn         1 E8G       0.174500
     47 H25         -0.1330     6.2890    -8.4330 ho         1 E8G       0.391000
@<TRIPOS>BOND
     1     1     2 1   
     2     1    23 1   
     3     1    24 1   
     4     1    25 1   
     5     2     3 ar  
     6     2     8 ar  
     7     3     4 1   
     8     3     5 ar  
     9     4    26 1   
    10     4    27 1   
    11     4    28 1   
    12     5     6 ar  
    13     5    29 1   
    14     6     7 ar  
    15     6    30 1   
    16     7     8 ar  
    17     7    31 1   
    18     8     9 1   
    19     9    10 1   
    20     9    32 1   
    21     9    33 1   
    22    10    11 1   
    23    10    34 1   
    24    11    12 2   
    25    11    13 1   
    26    13    14 1   
    27    13    35 1   
    28    14    15 1   
    29    14    19 1   
    30    14    36 1   
    31    15    16 1   
    32    15    37 1   
    33    15    38 1   
    34    16    17 1   
    35    16    18 1   
    36    16    39 1   
    37    17    40 1   
    38    17    41 1   
    39    17    42 1   
    40    18    43 1   
    41    18    44 1   
    42    18    45 1   
    43    19    20 2   
    44    19    21 1   
    45    21    22 1   
    46    21    46 1   
    47    22    47 1   
@<TRIPOS>SUBSTRUCTURE
     1 E8G         1 TEMP              0 ****  ****    0 ROOT
