@<TRIPOS>MOLECULE
molecule
   62    64     1     0     0
SMALL
bcc


@<TRIPOS>ATOM
      1 C17          1.5070     0.0000     0.0000 c3         1 E8J      -0.115700
      2 C22          1.4680     2.4790    -0.0440 c          1 E8J       0.657100
      3 C28          0.0000     0.0000     0.0000 c          1 E8J       0.689100
      4 C01          6.0610    -0.5190     4.3310 c3         1 E8J      -0.092100
      5 C05          5.5620    -0.4040     2.8890 c3         1 E8J      -0.085400
      6 C08          4.0390    -0.2600     2.8870 c3         1 E8J      -0.078400
      7 C11          3.5400    -0.1440     1.4450 c3         1 E8J      -0.087400
      8 C14          2.0160     0.0000     1.4430 c3         1 E8J      -0.076400
      9 C19          2.0160     1.2500    -0.7210 c3         1 E8J      -0.150400
     10 O23          0.6660     2.3670     0.8600 o          1 E8J      -0.542100
     11 N24          1.8670     3.7040    -0.4410 ns         1 E8J      -0.478400
     12 O26          1.3520     4.8590     0.1960 oh         1 E8J      -0.360100
     13 O29         -0.6070     0.1610     1.0370 o          1 E8J      -0.549100
     14 N30         -0.6740    -0.1800    -1.1540 n          1 E8J      -0.487800
     15 C31         -0.0880    -0.5060    -2.4860 c3         1 E8J       0.094700
     16 C33         -0.2890     0.7880    -3.3320 c3         1 E8J      -0.105400
     17 C36         -1.8120     0.8470    -3.5920 c3         1 E8J      -0.078400
     18 C39         -2.3740    -0.4090    -2.8540 c3         1 E8J      -0.089700
     19 C41         -1.2030    -1.4290    -3.0910 c3         1 E8J      -0.098400
     20 C44         -2.1370    -0.1000    -1.3420 c3         1 E8J       0.053700
     21 C46         -2.8400    -1.1200    -0.4840 c          1 E8J       0.640100
     22 O47         -2.2080    -2.0260     0.0180 o          1 E8J      -0.518100
     23 N48         -4.1670    -1.0270    -0.2750 ns         1 E8J      -0.542400
     24 C50         -4.8170    -1.9710     0.5190 ca         1 E8J       0.438900
     25 N51         -4.1310    -2.9610     1.0690 nb         1 E8J      -0.619000
     26 C52         -4.7510    -3.8560     1.8230 ca         1 E8J       0.290900
     27 C54         -6.1110    -3.7620     2.0370 ca         1 E8J       0.289900
     28 N56         -6.8050    -2.7760     1.4910 nb         1 E8J      -0.713000
     29 C57         -6.1950    -1.8730     0.7420 ca         1 E8J       0.495300
     30 O58         -6.9050    -0.8600     0.1820 os         1 E8J      -0.454100
     31 C59         -8.3090    -0.8310     0.4430 c3         1 E8J       0.139700
     32 H1           1.8680    -0.8840    -0.5110 hc         1 E8J       0.064700
     33 H2           7.1440    -0.5610     4.3370 hc         1 E8J       0.033033
     34 H3           5.6630    -1.4210     4.7810 hc         1 E8J       0.033033
     35 H4           5.7300     0.3430     4.8980 hc         1 E8J       0.033033
     36 H5           5.8410    -1.2940     2.3380 hc         1 E8J       0.036700
     37 H6           6.0080     0.4650     2.4210 hc         1 E8J       0.036700
     38 H7           3.5930    -1.1290     3.3550 hc         1 E8J       0.047200
     39 H8           3.7600     0.6300     3.4380 hc         1 E8J       0.047200
     40 H9           3.8190    -1.0340     0.8940 hc         1 E8J       0.031700
     41 H10          3.9850     0.7250     0.9770 hc         1 E8J       0.031700
     42 H11          1.7410     0.9310     1.9230 hc         1 E8J       0.079200
     43 H12          1.5740    -0.8290     1.9820 hc         1 E8J       0.079200
     44 H13          1.6890     1.2310    -1.7530 hc         1 E8J       0.064700
     45 H14          3.0990     1.2710    -0.6860 hc         1 E8J       0.064700
     46 H15          2.5310     3.7970    -1.1840 hn         1 E8J       0.314500
     47 H16          1.7250     5.6290    -0.2000 ho         1 E8J       0.396000
     48 H17          0.9130    -0.9200    -2.4790 h1         1 E8J       0.085700
     49 H18          0.2520     0.7160    -4.2680 hc         1 E8J       0.049700
     50 H19          0.0330     1.6590    -2.7740 hc         1 E8J       0.049700
     51 H20         -2.2340     1.7530    -3.1730 hc         1 E8J       0.049700
     52 H21         -2.0190     0.7860    -4.6540 hc         1 E8J       0.049700
     53 H22         -3.3660    -0.7410    -3.1350 hc         1 E8J       0.088700
     54 H23         -1.3330    -2.3380    -2.5150 hc         1 E8J       0.069200
     55 H24         -1.0410    -1.6250    -4.1440 hc         1 E8J       0.069200
     56 H25         -2.4910     0.8960    -1.1050 h1         1 E8J       0.075700
     57 H26         -4.6840    -0.2690    -0.6750 hn         1 E8J       0.340500
     58 H27         -4.1880    -4.6660     2.2720 h4         1 E8J       0.037100
     59 H28         -6.6130    -4.4990     2.6520 h4         1 E8J       0.030100
     60 H29         -8.4760    -0.7470     1.5100 h1         1 E8J       0.047367
     61 H30         -8.7520     0.0210    -0.0600 h1         1 E8J       0.047367
     62 H31         -8.7640    -1.7430     0.0760 h1         1 E8J       0.047367
@<TRIPOS>BOND
     1    27    28 ar
     2    27    26 ar
     3    28    29 ar
     4    26    25 ar
     5    31    30 1
     6    29    30 1
     7    29    24 ar
     8    25    24 ar
     9    24    23 1
    10    23    21 1
    11    22    21 2
    12    21    20 1
    13    20    18 1
    14    20    14 1
    15    13     3 2
    16    18    19 1
    17    18    17 1
    18    19    15 1
    19    14     3 1
    20    14    15 1
    21     3     1 1
    22     6     5 1
    23     6     7 1
    24     8     7 1
    25     8     1 1
    26     5     4 1
    27    17    16 1
    28    15    16 1
    29     1     9 1
    30     9     2 1
    31     2    11 1
    32     2    10 2
    33    11    12 1
    34     1    32 1
    35     4    33 1
    36     4    34 1
    37     4    35 1
    38     5    36 1
    39     5    37 1
    40     6    38 1
    41     6    39 1
    42     7    40 1
    43     7    41 1
    44     8    42 1
    45     8    43 1
    46     9    44 1
    47     9    45 1
    48    11    46 1
    49    12    47 1
    50    15    48 1
    51    16    49 1
    52    16    50 1
    53    17    51 1
    54    17    52 1
    55    18    53 1
    56    19    54 1
    57    19    55 1
    58    20    56 1
    59    23    57 1
    60    26    58 1
    61    27    59 1
    62    31    60 1
    63    31    61 1
    64    31    62 1
@<TRIPOS>SUBSTRUCTURE
     1 E8J         1 TEMP              0 ****  ****    0 ROOT
