@<TRIPOS>MOLECULE
E8J
   62    64     1     0     0
SMALL
bcc


@<TRIPOS>ATOM
      1 C17          1.5070     0.0000     0.0000 c3         1 E8J      -0.089700
      2 C22          1.4680     2.4790    -0.0440 c          1 E8J       0.553100
      3 C28          0.0000     0.0000     0.0000 c          1 E8J       0.616100
      4 C01          6.0610    -0.5190     4.3310 c3         1 E8J       0.006900
      5 C05          5.5620    -0.4040     2.8890 c3         1 E8J      -0.029400
      6 C08          4.0390    -0.2600     2.8870 c3         1 E8J      -0.027400
      7 C11          3.5400    -0.1440     1.4450 c3         1 E8J      -0.035400
      8 C14          2.0160     0.0000     1.4430 c3         1 E8J      -0.042400
      9 C19          2.0160     1.2500    -0.7210 c3         1 E8J      -0.110400
     10 O23          0.6660     2.3670     0.8600 o          1 E8J      -0.580100
     11 N24          1.8670     3.7040    -0.4410 ns         1 E8J      -0.067400
     12 O26          1.3520     4.8590     0.1960 oh         1 E8J      -0.435100
     13 O29         -0.6070     0.1610     1.0370 o          1 E8J      -0.587100
     14 N30         -0.6740    -0.1800    -1.1540 n          1 E8J      -0.155800
     15 C31         -0.0880    -0.5060    -2.4860 c3         1 E8J       0.020700
     16 C33         -0.2890     0.7880    -3.3320 c3         1 E8J      -0.053400
     17 C36         -1.8120     0.8470    -3.5920 c3         1 E8J      -0.021400
     18 C39         -2.3740    -0.4090    -2.8540 c3         1 E8J      -0.056700
     19 C41         -1.2030    -1.4290    -3.0910 c3         1 E8J      -0.045400
     20 C44         -2.1370    -0.1000    -1.3420 c3         1 E8J      -0.028300
     21 C46         -2.8400    -1.1200    -0.4840 c          1 E8J       0.537100
     22 O47         -2.2080    -2.0260     0.0180 o          1 E8J      -0.559100
     23 N48         -4.1670    -1.0270    -0.2750 ns         1 E8J      -0.097400
     24 C50         -4.8170    -1.9710     0.5190 ca         1 E8J       0.237900
     25 N51         -4.1310    -2.9610     1.0690 nb         1 E8J      -0.498000
     26 C52         -4.7510    -3.8560     1.8230 ca         1 E8J       0.272900
     27 C54         -6.1110    -3.7620     2.0370 ca         1 E8J       0.283900
     28 N56         -6.8050    -2.7760     1.4910 nb         1 E8J      -0.608000
     29 C57         -6.1950    -1.8730     0.7420 ca         1 E8J       0.465300
     30 O58         -6.9050    -0.8600     0.1820 os         1 E8J      -0.442100
     31 C59         -8.3090    -0.8310     0.4430 c3         1 E8J       0.261700
     32 H1           1.8680    -0.8840    -0.5110 hc         1 E8J       0.035700
     33 H2           7.1440    -0.5610     4.3370 hc         1 E8J       0.000033
     34 H3           5.6630    -1.4210     4.7810 hc         1 E8J       0.000033
     35 H4           5.7300     0.3430     4.8980 hc         1 E8J       0.000033
     36 H5           5.8410    -1.2940     2.3380 hc         1 E8J       0.008700
     37 H6           6.0080     0.4650     2.4210 hc         1 E8J       0.008700
     38 H7           3.5930    -1.1290     3.3550 hc         1 E8J       0.019700
     39 H8           3.7600     0.6300     3.4380 hc         1 E8J       0.019700
     40 H9           3.8190    -1.0340     0.8940 hc         1 E8J       0.006700
     41 H10          3.9850     0.7250     0.9770 hc         1 E8J       0.006700
     42 H11          1.7410     0.9310     1.9230 hc         1 E8J       0.054200
     43 H12          1.5740    -0.8290     1.9820 hc         1 E8J       0.054200
     44 H13          1.6890     1.2310    -1.7530 hc         1 E8J       0.035700
     45 H14          3.0990     1.2710    -0.6860 hc         1 E8J       0.035700
     46 H15          2.5310     3.7970    -1.1840 hn         1 E8J       0.151500
     47 H16          1.7250     5.6290    -0.2000 ho         1 E8J       0.390000
     48 H17          0.9130    -0.9200    -2.4790 h1         1 E8J       0.057700
     49 H18          0.2520     0.7160    -4.2680 hc         1 E8J       0.021200
     50 H19          0.0330     1.6590    -2.7740 hc         1 E8J       0.021200
     51 H20         -2.2340     1.7530    -3.1730 hc         1 E8J       0.020200
     52 H21         -2.0190     0.7860    -4.6540 hc         1 E8J       0.020200
     53 H22         -3.3660    -0.7410    -3.1350 hc         1 E8J       0.056700
     54 H23         -1.3330    -2.3380    -2.5150 hc         1 E8J       0.039700
     55 H24         -1.0410    -1.6250    -4.1440 hc         1 E8J       0.039700
     56 H25         -2.4910     0.8960    -1.1050 h1         1 E8J       0.046700
     57 H26         -4.6840    -0.2690    -0.6750 hn         1 E8J       0.178500
     58 H27         -4.1880    -4.6660     2.2720 h4         1 E8J      -0.006900
     59 H28         -6.6130    -4.4990     2.6520 h4         1 E8J      -0.011900
     60 H29         -8.4760    -0.7470     1.5100 h1         1 E8J       0.001367
     61 H30         -8.7520     0.0210    -0.0600 h1         1 E8J       0.001367
     62 H31         -8.7640    -1.7430     0.0760 h1         1 E8J       0.001367
@<TRIPOS>BOND
     1     1     3 1   
     2     1     8 1   
     3     1     9 1   
     4     1    32 1   
     5     2     9 1   
     6     2    10 2   
     7     2    11 1   
     8     3    13 2   
     9     3    14 1   
    10     4     5 1   
    11     4    33 1   
    12     4    34 1   
    13     4    35 1   
    14     5     6 1   
    15     5    36 1   
    16     5    37 1   
    17     6     7 1   
    18     6    38 1   
    19     6    39 1   
    20     7     8 1   
    21     7    40 1   
    22     7    41 1   
    23     8    42 1   
    24     8    43 1   
    25     9    44 1   
    26     9    45 1   
    27    11    12 1   
    28    11    46 1   
    29    12    47 1   
    30    14    15 1   
    31    14    20 1   
    32    15    16 1   
    33    15    19 1   
    34    15    48 1   
    35    16    17 1   
    36    16    49 1   
    37    16    50 1   
    38    17    18 1   
    39    17    51 1   
    40    17    52 1   
    41    18    19 1   
    42    18    20 1   
    43    18    53 1   
    44    19    54 1   
    45    19    55 1   
    46    20    21 1   
    47    20    56 1   
    48    21    22 2   
    49    21    23 1   
    50    23    24 1   
    51    23    57 1   
    52    24    25 ar  
    53    24    29 ar  
    54    25    26 ar  
    55    26    27 ar  
    56    26    58 1   
    57    27    28 ar  
    58    27    59 1   
    59    28    29 ar  
    60    29    30 1   
    61    30    31 1   
    62    31    60 1   
    63    31    61 1   
    64    31    62 1   
@<TRIPOS>SUBSTRUCTURE
     1 E8J         1 TEMP              0 ****  ****    0 ROOT
