@<TRIPOS>MOLECULE
molecule
   65    67     1     0     0
SMALL
bcc


@<TRIPOS>ATOM
      1 C17          1.5070     0.0000     0.0000 c3         1 E8P      -0.118700
      2 C22          1.4130     2.4770    -0.0860 c          1 E8P       0.657100
      3 C28          0.0000     0.0000     0.0000 c          1 E8P       0.688100
      4 C01          6.0520    -0.5730     4.3330 c3         1 E8P      -0.091100
      5 C05          5.5560    -0.4440     2.8920 c3         1 E8P      -0.085400
      6 C08          4.0340    -0.2870     2.8880 c3         1 E8P      -0.078400
      7 C11          3.5380    -0.1570     1.4470 c3         1 E8P      -0.087400
      8 C14          2.0170     0.0000     1.4430 c3         1 E8P      -0.076400
      9 C19          2.0170     1.2500    -0.7200 c3         1 E8P      -0.149400
     10 O23          0.7180     2.3690     0.9020 o          1 E8P      -0.533100
     11 N24          1.6440     3.6930    -0.6190 ns         1 E8P      -0.482400
     12 O26          0.9930     4.8330    -0.0880 oh         1 E8P      -0.362100
     13 O29         -0.6070     0.1270     1.0420 o          1 E8P      -0.554100
     14 N30         -0.6740    -0.1410    -1.1600 n          1 E8P      -0.479800
     15 C31         -0.0860    -0.4100    -2.5040 c3         1 E8P       0.086700
     16 C33         -0.2990     0.9140    -3.2990 c3         1 E8P      -0.106400
     17 C36         -1.8230     0.9700    -3.5560 c3         1 E8P      -0.084400
     18 C39         -2.3730    -0.3180    -2.8650 c3         1 E8P      -0.076700
     19 C41         -1.1940    -1.3180    -3.1430 c3         1 E8P      -0.091400
     20 C44         -2.1380    -0.0650    -1.3430 c3         1 E8P       0.046700
     21 C46         -2.8300    -1.1240    -0.5250 c          1 E8P       0.660100
     22 O47         -2.1870    -2.0230    -0.0270 o          1 E8P      -0.590100
     23 N48         -4.1650    -1.0720    -0.3470 ns         1 E8P      -0.550900
     24 C50         -4.8240    -2.0360     0.5380 c3         1 E8P       0.047000
     25 C52         -5.0420    -3.3300    -0.2040 c          1 E8P       0.894600
     26 O53         -4.6830    -3.4360    -1.3520 o          1 E8P      -0.833800
     27 O55         -5.6340    -4.3650     0.4130 o          1 E8P      -0.833800
     28 C56         -6.1540    -1.4820     0.9830 ca         1 E8P      -0.026300
     29 C57         -6.9540    -0.8000     0.0860 ca         1 E8P      -0.116500
     30 C59         -8.1750    -0.2960     0.4920 ca         1 E8P      -0.137000
     31 C61         -8.5960    -0.4750     1.7970 ca         1 E8P      -0.157000
     32 C63         -7.7960    -1.1590     2.6940 ca         1 E8P      -0.137000
     33 C65         -6.5740    -1.6610     2.2880 ca         1 E8P      -0.116500
     34 H1           1.8690    -0.8840    -0.5110 hc         1 E8P       0.065700
     35 H2           5.6470    -1.4760     4.7750 hc         1 E8P       0.030367
     36 H3           7.1340    -0.6230     4.3400 hc         1 E8P       0.030367
     37 H4           5.7270     0.2870     4.9060 hc         1 E8P       0.030367
     38 H5           6.0100     0.4260     2.4310 hc         1 E8P       0.035200
     39 H6           5.8300    -1.3310     2.3340 hc         1 E8P       0.035200
     40 H7           3.5810    -1.1570     3.3480 hc         1 E8P       0.047700
     41 H8           3.7610     0.6000     3.4460 hc         1 E8P       0.047700
     42 H9           3.8110    -1.0440     0.8890 hc         1 E8P       0.029200
     43 H10          3.9920     0.7130     0.9860 hc         1 E8P       0.029200
     44 H11          1.7490     0.9350     1.9210 hc         1 E8P       0.080700
     45 H12          1.5670    -0.8240     1.9850 hc         1 E8P       0.080700
     46 H13          1.7330     1.2060    -1.7640 hc         1 E8P       0.061700
     47 H14          3.0960     1.2970    -0.6400 hc         1 E8P       0.061700
     48 H15          2.3080     3.7970    -1.3610 hn         1 E8P       0.310500
     49 H16          1.4150     5.6130    -0.4060 ho         1 E8P       0.389000
     50 H17          0.9190    -0.8160    -2.5130 h1         1 E8P       0.072700
     51 H18          0.0160     1.7660    -2.7080 hc         1 E8P       0.037700
     52 H19          0.2420     0.8830    -4.2380 hc         1 E8P       0.037700
     53 H20         -2.0300     0.9480    -4.6190 hc         1 E8P       0.041700
     54 H21         -2.2520     1.8560    -3.1030 hc         1 E8P       0.041700
     55 H22         -3.3620    -0.6470    -3.1590 hc         1 E8P       0.107700
     56 H23         -1.0320    -1.4700    -4.2030 hc         1 E8P       0.072700
     57 H24         -1.3160    -2.2490    -2.6040 hc         1 E8P       0.072700
     58 H25         -2.4990     0.9180    -1.0670 h1         1 E8P       0.063700
     59 H26         -4.7010    -0.3510    -0.7890 hn         1 E8P       0.294500
     60 H27         -4.2000    -2.2160     1.4040 h1         1 E8P       0.081700
     61 H29         -6.6240    -0.6600    -0.9360 ha         1 E8P       0.133000
     62 H30         -8.8020     0.2390    -0.2110 ha         1 E8P       0.109500
     63 H31         -9.5530    -0.0810     2.1160 ha         1 E8P       0.106000
     64 H32         -8.1270    -1.3000     3.7160 ha         1 E8P       0.109500
     65 H33         -5.9480    -2.1970     2.9900 ha         1 E8P       0.133000
@<TRIPOS>BOND
     1    30    31 ar
     2    30    29 ar
     3    31    32 ar
     4    29    28 ar
     5    32    33 ar
     6    26    25 1
     7    28    33 ar
     8    28    24 1
     9    25    24 1
    10    25    27 1
    11    24    23 1
    12    23    21 1
    13    22    21 2
    14    21    20 1
    15    20    18 1
    16    20    14 1
    17    13     3 2
    18    18    19 1
    19    18    17 1
    20    14     3 1
    21    14    15 1
    22     3     1 1
    23    19    15 1
    24     8     7 1
    25     8     1 1
    26     7     6 1
    27     5     6 1
    28     5     4 1
    29    15    16 1
    30     1     9 1
    31    17    16 1
    32     9     2 1
    33     2    11 1
    34     2    10 2
    35    11    12 1
    36     1    34 1
    37     4    35 1
    38     4    36 1
    39     4    37 1
    40     5    38 1
    41     5    39 1
    42     6    40 1
    43     6    41 1
    44     7    42 1
    45     7    43 1
    46     8    44 1
    47     8    45 1
    48     9    46 1
    49     9    47 1
    50    11    48 1
    51    12    49 1
    52    15    50 1
    53    16    51 1
    54    16    52 1
    55    17    53 1
    56    17    54 1
    57    18    55 1
    58    19    56 1
    59    19    57 1
    60    20    58 1
    61    23    59 1
    62    24    60 1
    63    29    61 1
    64    30    62 1
    65    31    63 1
    66    32    64 1
    67    33    65 1
@<TRIPOS>SUBSTRUCTURE
     1 E8P         1 TEMP              0 ****  ****    0 ROOT
