@<TRIPOS>MOLECULE
E8P
   65    67     1     0     0
SMALL
bcc


@<TRIPOS>ATOM
      1 C17          1.5070     0.0000     0.0000 c3         1 E8P      -0.092700
      2 C22          1.4130     2.4770    -0.0860 c          1 E8P       0.555100
      3 C28          0.0000     0.0000     0.0000 c          1 E8P       0.612100
      4 C01          6.0520    -0.5730     4.3330 c3         1 E8P       0.005900
      5 C05          5.5560    -0.4440     2.8920 c3         1 E8P      -0.030400
      6 C08          4.0340    -0.2870     2.8880 c3         1 E8P      -0.027400
      7 C11          3.5380    -0.1570     1.4470 c3         1 E8P      -0.035400
      8 C14          2.0170     0.0000     1.4430 c3         1 E8P      -0.045400
      9 C19          2.0170     1.2500    -0.7200 c3         1 E8P      -0.111400
     10 O23          0.7180     2.3690     0.9020 o          1 E8P      -0.569100
     11 N24          1.6440     3.6930    -0.6190 ns         1 E8P      -0.078400
     12 O26          0.9930     4.8330    -0.0880 oh         1 E8P      -0.435100
     13 O29         -0.6070     0.1270     1.0420 o          1 E8P      -0.592100
     14 N30         -0.6740    -0.1410    -1.1600 n          1 E8P      -0.141800
     15 C31         -0.0860    -0.4100    -2.5040 c3         1 E8P       0.008700
     16 C33         -0.2990     0.9140    -3.2990 c3         1 E8P      -0.054400
     17 C36         -1.8230     0.9700    -3.5560 c3         1 E8P      -0.029400
     18 C39         -2.3730    -0.3180    -2.8650 c3         1 E8P      -0.043700
     19 C41         -1.1940    -1.3180    -3.1430 c3         1 E8P      -0.040400
     20 C44         -2.1380    -0.0650    -1.3430 c3         1 E8P      -0.036300
     21 C46         -2.8300    -1.1240    -0.5250 c          1 E8P       0.566100
     22 O47         -2.1870    -2.0230    -0.0270 o          1 E8P      -0.635100
     23 N48         -4.1650    -1.0720    -0.3470 ns         1 E8P      -0.142900
     24 C50         -4.8240    -2.0360     0.5380 c3         1 E8P      -0.049000
     25 C52         -5.0420    -3.3300    -0.2040 c          1 E8P       0.983600
     26 O53         -4.6830    -3.4360    -1.3520 o          1 E8P      -0.885300
     27 O55         -5.6340    -4.3650     0.4130 o          1 E8P      -0.885300
     28 C56         -6.1540    -1.4820     0.9830 ca         1 E8P      -0.022300
     29 C57         -6.9540    -0.8000     0.0860 ca         1 E8P      -0.092500
     30 C59         -8.1750    -0.2960     0.4920 ca         1 E8P      -0.112000
     31 C61         -8.5960    -0.4750     1.7970 ca         1 E8P      -0.136000
     32 C63         -7.7960    -1.1590     2.6940 ca         1 E8P      -0.112000
     33 C65         -6.5740    -1.6610     2.2880 ca         1 E8P      -0.092500
     34 H1           1.8690    -0.8840    -0.5110 hc         1 E8P       0.036700
     35 H2           5.6470    -1.4760     4.7750 hc         1 E8P      -0.001967
     36 H3           7.1340    -0.6230     4.3400 hc         1 E8P      -0.001967
     37 H4           5.7270     0.2870     4.9060 hc         1 E8P      -0.001967
     38 H5           6.0100     0.4260     2.4310 hc         1 E8P       0.007200
     39 H6           5.8300    -1.3310     2.3340 hc         1 E8P       0.007200
     40 H7           3.5810    -1.1570     3.3480 hc         1 E8P       0.020200
     41 H8           3.7610     0.6000     3.4460 hc         1 E8P       0.020200
     42 H9           3.8110    -1.0440     0.8890 hc         1 E8P       0.004700
     43 H10          3.9920     0.7130     0.9860 hc         1 E8P       0.004700
     44 H11          1.7490     0.9350     1.9210 hc         1 E8P       0.056700
     45 H12          1.5670    -0.8240     1.9850 hc         1 E8P       0.056700
     46 H13          1.7330     1.2060    -1.7640 hc         1 E8P       0.034200
     47 H14          3.0960     1.2970    -0.6400 hc         1 E8P       0.034200
     48 H15          2.3080     3.7970    -1.3610 hn         1 E8P       0.149500
     49 H16          1.4150     5.6130    -0.4060 ho         1 E8P       0.383000
     50 H17          0.9190    -0.8160    -2.5130 h1         1 E8P       0.046700
     51 H18          0.0160     1.7660    -2.7080 hc         1 E8P       0.011200
     52 H19          0.2420     0.8830    -4.2380 hc         1 E8P       0.011200
     53 H20         -2.0300     0.9480    -4.6190 hc         1 E8P       0.013200
     54 H21         -2.2520     1.8560    -3.1030 hc         1 E8P       0.013200
     55 H22         -3.3620    -0.6470    -3.1590 hc         1 E8P       0.075700
     56 H23         -1.0320    -1.4700    -4.2030 hc         1 E8P       0.044200
     57 H24         -1.3160    -2.2490    -2.6040 hc         1 E8P       0.044200
     58 H25         -2.4990     0.9180    -1.0670 h1         1 E8P       0.035700
     59 H26         -4.7010    -0.3510    -0.7890 hn         1 E8P       0.154500
     60 H27         -4.2000    -2.2160     1.4040 h1         1 E8P       0.060700
     61 H29         -6.6240    -0.6600    -0.9360 ha         1 E8P       0.109500
     62 H30         -8.8020     0.2390    -0.2110 ha         1 E8P       0.086000
     63 H31         -9.5530    -0.0810     2.1160 ha         1 E8P       0.084000
     64 H32         -8.1270    -1.3000     3.7160 ha         1 E8P       0.086000
     65 H33         -5.9480    -2.1970     2.9900 ha         1 E8P       0.109500
@<TRIPOS>BOND
     1     1     3 1   
     2     1     8 1   
     3     1     9 1   
     4     1    34 1   
     5     2     9 1   
     6     2    10 2   
     7     2    11 1   
     8     3    13 2   
     9     3    14 1   
    10     4     5 1   
    11     4    35 1   
    12     4    36 1   
    13     4    37 1   
    14     5     6 1   
    15     5    38 1   
    16     5    39 1   
    17     6     7 1   
    18     6    40 1   
    19     6    41 1   
    20     7     8 1   
    21     7    42 1   
    22     7    43 1   
    23     8    44 1   
    24     8    45 1   
    25     9    46 1   
    26     9    47 1   
    27    11    12 1   
    28    11    48 1   
    29    12    49 1   
    30    14    15 1   
    31    14    20 1   
    32    15    16 1   
    33    15    19 1   
    34    15    50 1   
    35    16    17 1   
    36    16    51 1   
    37    16    52 1   
    38    17    18 1   
    39    17    53 1   
    40    17    54 1   
    41    18    19 1   
    42    18    20 1   
    43    18    55 1   
    44    19    56 1   
    45    19    57 1   
    46    20    21 1   
    47    20    58 1   
    48    21    22 2   
    49    21    23 1   
    50    23    24 1   
    51    23    59 1   
    52    24    25 1   
    53    24    28 1   
    54    24    60 1   
    55    25    26 1   
    56    25    27 1   
    57    28    29 ar  
    58    28    33 ar  
    59    29    30 ar  
    60    29    61 1   
    61    30    31 ar  
    62    30    62 1   
    63    31    32 ar  
    64    31    63 1   
    65    32    33 ar  
    66    32    64 1   
    67    33    65 1   
@<TRIPOS>SUBSTRUCTURE
     1 E8P         1 TEMP              0 ****  ****    0 ROOT
