@<TRIPOS>MOLECULE
E8R
   47    47     1     0     0
SMALL
bcc


@<TRIPOS>ATOM
      1 C1           0.0000     0.0000     0.0000 c3         1 E8R       0.061200
      2 C2           1.5070     0.0000     0.0000 ca         1 E8R      -0.082300
      3 CD1          2.1980     0.0000     1.1970 ca         1 E8R      -0.100000
      4 CG1          3.5810     0.0010     1.1960 ca         1 E8R      -0.084000
      5 CB           4.2720     0.0010    -0.0010 ca         1 E8R      -0.129300
      6 CA           5.7790     0.0010    -0.0020 c3         1 E8R       0.128300
      7 N            6.2680    -1.3790    -0.0020 ns         1 E8R      -0.214900
      8 C7           7.5940    -1.6250    -0.0020 c          1 E8R       0.587100
      9 O            8.3830    -0.7010    -0.0020 o          1 E8R      -0.710100
     10 N2           8.0430    -2.8960    -0.0010 ns         1 E8R      -0.184900
     11 C8           9.4840    -3.1630    -0.0020 c3         1 E8R      -0.039300
     12 C9           9.7470    -4.5410    -0.6110 c3         1 E8R      -0.036400
     13 C10          9.3280    -4.5360    -2.0830 c3         1 E8R      -0.057700
     14 C11         10.2360    -3.5880    -2.8680 c3         1 E8R       0.002900
     15 C12          9.4540    -5.9510    -2.6530 c3         1 E8R       0.002900
     16 C13         10.0010    -3.1320     1.4130 c          1 E8R       0.558100
     17 O2           9.2410    -2.9100     2.3310 o          1 E8R      -0.610100
     18 N3          11.3070    -3.3520     1.6580 ns         1 E8R      -0.058400
     19 O3          11.7930    -3.3230     2.9880 oh         1 E8R      -0.438100
     20 CG2          3.5810    -0.0010    -1.1980 ca         1 E8R      -0.083000
     21 C15          2.1980    -0.0050    -1.1980 ca         1 E8R      -0.093300
     22 C16          1.4440    -0.0120    -2.5020 c3         1 E8R       0.062200
     23 H1          -0.3610     0.8840    -0.5120 hc         1 E8R       0.009033
     24 H2          -0.3610    -0.8850    -0.5090 hc         1 E8R       0.009033
     25 H3          -0.3610     0.0020     1.0210 hc         1 E8R       0.009033
     26 H4           1.6570     0.0000     2.1350 ha         1 E8R       0.108000
     27 H5           4.1230     0.0010     2.1340 ha         1 E8R       0.111000
     28 H6           6.1400     0.5120    -0.8870 h1         1 E8R       0.027700
     29 H7           6.1400     0.5130     0.8820 h1         1 E8R       0.027700
     30 H8           5.6180    -2.1400    -0.0240 hn         1 E8R       0.169500
     31 H9           7.3940    -3.6560     0.0460 hn         1 E8R       0.170500
     32 H10          9.9910    -2.4060    -0.5880 h1         1 E8R       0.075700
     33 H11          9.1730    -5.2880    -0.0760 hc         1 E8R       0.024700
     34 H12         10.8020    -4.7740    -0.5370 hc         1 E8R       0.024700
     35 H13          8.3000    -4.2030    -2.1660 hc         1 E8R       0.030700
     36 H14         10.2220    -3.8590    -3.9170 hc         1 E8R       0.006033
     37 H15         11.2480    -3.6610    -2.4900 hc         1 E8R       0.006033
     38 H16          9.8810    -2.5710    -2.7540 hc         1 E8R       0.006033
     39 H17          8.8670    -6.6360    -2.0530 hc         1 E8R       0.006033
     40 H18         10.4930    -6.2560    -2.6360 hc         1 E8R       0.006033
     41 H19          9.0910    -5.9630    -3.6740 hc         1 E8R       0.006033
     42 H20         11.9390    -3.5110     0.8990 hn         1 E8R       0.155500
     43 H21         12.7360    -3.2950     2.9770 ho         1 E8R       0.390000
     44 H22          4.1220    -0.0030    -2.1360 ha         1 E8R       0.110000
     45 H23          2.1480    -0.0180    -3.3260 hc         1 E8R       0.008700
     46 H24          0.8230     0.8740    -2.5650 hc         1 E8R       0.008700
     47 H25          0.8200    -0.8950    -2.5540 hc         1 E8R       0.008700
@<TRIPOS>BOND
     1     1     2 1   
     2     1    23 1   
     3     1    24 1   
     4     1    25 1   
     5     2     3 ar  
     6     2    21 ar  
     7     3     4 ar  
     8     3    26 1   
     9     4     5 ar  
    10     4    27 1   
    11     5     6 1   
    12     5    20 ar  
    13     6     7 1   
    14     6    28 1   
    15     6    29 1   
    16     7     8 1   
    17     7    30 1   
    18     8     9 2   
    19     8    10 1   
    20    10    11 1   
    21    10    31 1   
    22    11    12 1   
    23    11    16 1   
    24    11    32 1   
    25    12    13 1   
    26    12    33 1   
    27    12    34 1   
    28    13    14 1   
    29    13    15 1   
    30    13    35 1   
    31    14    36 1   
    32    14    37 1   
    33    14    38 1   
    34    15    39 1   
    35    15    40 1   
    36    15    41 1   
    37    16    17 2   
    38    16    18 1   
    39    18    19 1   
    40    18    42 1   
    41    19    43 1   
    42    20    21 ar  
    43    20    44 1   
    44    21    22 1   
    45    22    45 1   
    46    22    46 1   
    47    22    47 1   
@<TRIPOS>SUBSTRUCTURE
     1 E8R         1 TEMP              0 ****  ****    0 ROOT
