@<TRIPOS>MOLECULE
molecule
   47    47     1     0     0
SMALL
bcc


@<TRIPOS>ATOM
      1 C1           0.0000     0.0000     0.0000 c3         1 E8R      -0.047800
      2 C2           1.5070     0.0000     0.0000 ca         1 E8R      -0.075300
      3 CD1          2.1980     0.0000     1.1970 ca         1 E8R      -0.128000
      4 CG1          3.5810     0.0010     1.1960 ca         1 E8R      -0.111000
      5 CB           4.2720     0.0010    -0.0010 ca         1 E8R      -0.122300
      6 CA           5.7790     0.0010    -0.0020 c3         1 E8R       0.180300
      7 N            6.2680    -1.3790    -0.0020 ns         1 E8R      -0.597900
      8 C7           7.5940    -1.6250    -0.0020 c          1 E8R       0.791100
      9 O            8.3830    -0.7010    -0.0020 o          1 E8R      -0.659100
     10 N2           8.0430    -2.8960    -0.0010 ns         1 E8R      -0.579900
     11 C8           9.4840    -3.1630    -0.0020 c3         1 E8R       0.072700
     12 C9           9.7470    -4.5410    -0.6110 c3         1 E8R      -0.089400
     13 C10          9.3280    -4.5360    -2.0830 c3         1 E8R      -0.078700
     14 C11         10.2360    -3.5880    -2.8680 c3         1 E8R      -0.091100
     15 C12          9.4540    -5.9510    -2.6530 c3         1 E8R      -0.091100
     16 C13         10.0010    -3.1320     1.4130 c          1 E8R       0.652100
     17 O2           9.2410    -2.9100     2.3310 o          1 E8R      -0.559100
     18 N3          11.3070    -3.3520     1.6580 ns         1 E8R      -0.474400
     19 O3          11.7930    -3.3230     2.9880 oh         1 E8R      -0.362100
     20 CG2          3.5810    -0.0010    -1.1980 ca         1 E8R      -0.109000
     21 C15          2.1980    -0.0050    -1.1980 ca         1 E8R      -0.088300
     22 C16          1.4440    -0.0120    -2.5020 c3         1 E8R      -0.045800
     23 H1          -0.3610     0.8840    -0.5120 hc         1 E8R       0.044033
     24 H2          -0.3610    -0.8850    -0.5090 hc         1 E8R       0.044033
     25 H3          -0.3610     0.0020     1.0210 hc         1 E8R       0.044033
     26 H4           1.6570     0.0000     2.1350 ha         1 E8R       0.133000
     27 H5           4.1230     0.0010     2.1340 ha         1 E8R       0.138000
     28 H6           6.1400     0.5120    -0.8870 h1         1 E8R       0.059200
     29 H7           6.1400     0.5130     0.8820 h1         1 E8R       0.059200
     30 H8           5.6180    -2.1400    -0.0240 hn         1 E8R       0.311500
     31 H9           7.3940    -3.6560     0.0460 hn         1 E8R       0.315500
     32 H10          9.9910    -2.4060    -0.5880 h1         1 E8R       0.100700
     33 H11          9.1730    -5.2880    -0.0760 hc         1 E8R       0.053700
     34 H12         10.8020    -4.7740    -0.5370 hc         1 E8R       0.053700
     35 H13          8.3000    -4.2030    -2.1660 hc         1 E8R       0.058700
     36 H14         10.2220    -3.8590    -3.9170 hc         1 E8R       0.036867
     37 H15         11.2480    -3.6610    -2.4900 hc         1 E8R       0.036867
     38 H16          9.8810    -2.5710    -2.7540 hc         1 E8R       0.036867
     39 H17          8.8670    -6.6360    -2.0530 hc         1 E8R       0.036867
     40 H18         10.4930    -6.2560    -2.6360 hc         1 E8R       0.036867
     41 H19          9.0910    -5.9630    -3.6740 hc         1 E8R       0.036867
     42 H20         11.9390    -3.5110     0.8990 hn         1 E8R       0.316500
     43 H21         12.7360    -3.2950     2.9770 ho         1 E8R       0.396000
     44 H22          4.1220    -0.0030    -2.1360 ha         1 E8R       0.134000
     45 H23          2.1480    -0.0180    -3.3260 hc         1 E8R       0.043033
     46 H24          0.8230     0.8740    -2.5650 hc         1 E8R       0.043033
     47 H25          0.8200    -0.8950    -2.5540 hc         1 E8R       0.043033
@<TRIPOS>BOND
     1     1     2 1
     2     2     3 ar
     3     2    21 ar
     4     3     4 ar
     5    22    21 1
     6    14    13 1
     7    21    20 ar
     8    13    12 1
     9    13    15 1
    10     4     5 ar
    11    12    11 1
    12    20     5 ar
    13     5     6 1
    14    10    11 1
    15    10     8 1
    16    11    16 1
    17     7     8 1
    18     7     6 1
    19     8     9 2
    20    16    17 2
    21    16    18 1
    22    18    19 1
    23     1    23 1
    24     1    24 1
    25     1    25 1
    26     3    26 1
    27     4    27 1
    28     6    28 1
    29     6    29 1
    30     7    30 1
    31    10    31 1
    32    11    32 1
    33    12    33 1
    34    12    34 1
    35    13    35 1
    36    14    36 1
    37    14    37 1
    38    14    38 1
    39    15    39 1
    40    15    40 1
    41    15    41 1
    42    18    42 1
    43    19    43 1
    44    20    44 1
    45    22    45 1
    46    22    46 1
    47    22    47 1
@<TRIPOS>SUBSTRUCTURE
     1 E8R         1 TEMP              0 ****  ****    0 ROOT
