@<TRIPOS>MOLECULE
E8S
   55    58     1     0     0
SMALL
bcc


@<TRIPOS>ATOM
      1 C14          0.0000     0.0000     0.0000 ca         1 E8S      -0.210500
      2 O17          0.0290    -0.4610     4.9090 o          1 E8S      -0.585800
      3 N19         -1.2200     1.5760     4.2910 n3         1 E8S      -0.489500
      4 C23         -0.7290     2.6100     6.4310 ca         1 E8S      -0.107300
      5 C24         -0.5110     1.6500     7.4010 ca         1 E8S      -0.060000
      6 C28         -1.6270     3.0210     9.0190 ca         1 E8S       0.064100
      7 C30         -3.0670     4.5200     9.8360 c3         1 E8S       0.433200
      8 O33         -2.5350     5.0270     8.6020 os         1 E8S      -0.322900
      9 C01          3.4950     0.0020    -1.1000 c3         1 E8S       0.244700
     10 O05          2.0680     0.0010    -1.1770 os         1 E8S      -0.306900
     11 C06          1.3880     0.0000     0.0000 ca         1 E8S       0.198100
     12 C07          2.0790     0.0000     1.2020 ca         1 E8S      -0.210500
     13 C09          1.3850    -0.0010     2.3970 ca         1 E8S       0.049500
     14 C11          0.0010    -0.0010     2.3940 ca         1 E8S      -0.201500
     15 C12         -0.6890    -0.0010     1.1970 ca         1 E8S       0.049500
     16 S16         -0.8810    -0.0020     3.9190 sy         1 E8S       1.059200
     17 O18         -2.1290    -0.6300     3.6610 o          1 E8S      -0.585800
     18 C20         -0.2400     2.3830     5.0240 c3         1 E8S       0.276100
     19 C26         -0.9570     1.8530     8.6930 ca         1 E8S      -0.079000
     20 O29         -2.1610     3.4600    10.1960 os         1 E8S      -0.319900
     21 C34         -1.8570     3.9840     8.0390 ca         1 E8S       0.058100
     22 C35         -1.4010     3.7760     6.7480 ca         1 E8S      -0.089000
     23 C37         -2.4980     2.1650     3.8870 c3         1 E8S       0.146500
     24 C39         -2.2620     3.5810     3.3570 c3         1 E8S       0.038900
     25 C42         -1.2970     3.5310     2.2000 cc         1 E8S       0.002600
     26 C43         -1.6420     3.4190     0.9160 cd         1 E8S      -0.124000
     27 C45         -0.5800     3.3930     0.0280 cd         1 E8S      -0.124000
     28 C47          0.6260     3.4840     0.5910 cc         1 E8S       0.005900
     29 S49          0.4540     3.6170     2.3360 ss         1 E8S      -0.269800
     30 C50         -3.4240     2.2210     5.0750 c          1 E8S       0.548100
     31 O51         -3.0990     1.6990     6.1200 o          1 E8S      -0.585100
     32 N52         -4.6110     2.8510     4.9750 ns         1 E8S      -0.063400
     33 O54         -5.4810     2.9030     6.0920 oh         1 E8S      -0.435100
     34 H1          -0.5420    -0.0000    -0.9380 ha         1 E8S       0.123500
     35 H2           0.0300     0.7440     7.1530 ha         1 E8S       0.132000
     36 H3          -3.0430     5.2960    10.5920 h2         1 E8S       0.011700
     37 H4          -4.0580     4.1150     9.6690 h2         1 E8S       0.011700
     38 H5           3.8280     0.8830    -0.5640 h1         1 E8S       0.000033
     39 H6           3.8290    -0.8860    -0.5770 h1         1 E8S       0.000033
     40 H7           3.9100     0.0090    -2.1010 h1         1 E8S       0.000033
     41 H8           3.1620    -0.0000     1.2050 ha         1 E8S       0.123500
     42 H9           1.9240    -0.0010     3.3360 ha         1 E8S       0.120000
     43 H10         -1.7720    -0.0010     1.1970 ha         1 E8S       0.120000
     44 H11          0.7090     1.8610     5.0510 h1         1 E8S       0.034700
     45 H12         -0.1140     3.3370     4.5270 h1         1 E8S       0.034700
     46 H13         -0.7850     1.0980     9.4510 ha         1 E8S       0.109000
     47 H14         -1.5700     4.5270     5.9860 ha         1 E8S       0.102000
     48 H15         -2.9450     1.5590     3.1090 h1         1 E8S       0.059700
     49 H16         -3.2030     4.0030     3.0250 hc         1 E8S       0.037700
     50 H17         -1.8490     4.1970     4.1460 hc         1 E8S       0.037700
     51 H18         -2.6740     3.3540     0.5930 ha         1 E8S       0.120000
     52 H19         -0.7170     3.3050    -1.0430 ha         1 E8S       0.122000
     53 H20          1.5670     3.4800     0.0540 h4         1 E8S       0.149000
     54 H21         -4.8950     3.2480     4.1020 hn         1 E8S       0.155500
     55 H22         -6.3760     2.8960     5.7940 ho         1 E8S       0.389000
@<TRIPOS>BOND
     1     1    11 ar  
     2     1    15 ar  
     3     1    34 1   
     4     2    16 2   
     5     3    16 1   
     6     3    18 1   
     7     3    23 1   
     8     4     5 ar  
     9     4    18 1   
    10     4    22 ar  
    11     5    19 ar  
    12     5    35 1   
    13     6    19 ar  
    14     6    20 1   
    15     6    21 ar  
    16     7     8 1   
    17     7    20 1   
    18     7    36 1   
    19     7    37 1   
    20     8    21 1   
    21     9    10 1   
    22     9    38 1   
    23     9    39 1   
    24     9    40 1   
    25    10    11 1   
    26    11    12 ar  
    27    12    13 ar  
    28    12    41 1   
    29    13    14 ar  
    30    13    42 1   
    31    14    15 ar  
    32    14    16 1   
    33    15    43 1   
    34    16    17 2   
    35    18    44 1   
    36    18    45 1   
    37    19    46 1   
    38    21    22 ar  
    39    22    47 1   
    40    23    24 1   
    41    23    30 1   
    42    23    48 1   
    43    24    25 1   
    44    24    49 1   
    45    24    50 1   
    46    25    26 2   
    47    25    29 1   
    48    26    27 1   
    49    26    51 1   
    50    27    28 2   
    51    27    52 1   
    52    28    29 1   
    53    28    53 1   
    54    30    31 2   
    55    30    32 1   
    56    32    33 1   
    57    32    54 1   
    58    33    55 1   
@<TRIPOS>SUBSTRUCTURE
     1 E8S         1 TEMP              0 ****  ****    0 ROOT
