@<TRIPOS>MOLECULE
molecule
   55    58     1     0     0
SMALL
bcc


@<TRIPOS>ATOM
      1 C14          0.0000     0.0000     0.0000 ca         1 E8S      -0.212000
      2 O17          0.0290    -0.4610     4.9090 o          1 E8S      -0.632300
      3 N19         -1.2200     1.5760     4.2910 n3         1 E8S      -0.786500
      4 C23         -0.7290     2.6100     6.4310 ca         1 E8S      -0.099300
      5 C24         -0.5110     1.6500     7.4010 ca         1 E8S      -0.086000
      6 C28         -1.6270     3.0210     9.0190 ca         1 E8S       0.061100
      7 C30         -3.0670     4.5200     9.8360 c3         1 E8S       0.333200
      8 O33         -2.5350     5.0270     8.6020 os         1 E8S      -0.332900
      9 C01          3.4950     0.0020    -1.1000 c3         1 E8S       0.125700
     10 O05          2.0680     0.0010    -1.1770 os         1 E8S      -0.324900
     11 C06          1.3880     0.0000     0.0000 ca         1 E8S       0.191100
     12 C07          2.0790     0.0000     1.2020 ca         1 E8S      -0.212000
     13 C09          1.3850    -0.0010     2.3970 ca         1 E8S       0.012000
     14 C11          0.0010    -0.0010     2.3940 ca         1 E8S      -0.355500
     15 C12         -0.6890    -0.0010     1.1970 ca         1 E8S       0.012000
     16 S16         -0.8810    -0.0020     3.9190 sy         1 E8S       1.436200
     17 O18         -2.1290    -0.6300     3.6610 o          1 E8S      -0.632300
     18 C20         -0.2400     2.3830     5.0240 c3         1 E8S       0.291100
     19 C26         -0.9570     1.8530     8.6930 ca         1 E8S      -0.105000
     20 O29         -2.1610     3.4600    10.1960 os         1 E8S      -0.330900
     21 C34         -1.8570     3.9840     8.0390 ca         1 E8S       0.054100
     22 C35         -1.4010     3.7760     6.7480 ca         1 E8S      -0.105000
     23 C37         -2.4980     2.1650     3.8870 c3         1 E8S       0.190500
     24 C39         -2.2620     3.5810     3.3570 c3         1 E8S      -0.016100
     25 C42         -1.2970     3.5310     2.2000 cc         1 E8S      -0.040400
     26 C43         -1.6420     3.4190     0.9160 cd         1 E8S      -0.153000
     27 C45         -0.5800     3.3930     0.0280 cd         1 E8S      -0.155000
     28 C47          0.6260     3.4840     0.5910 cc         1 E8S      -0.066100
     29 S49          0.4540     3.6170     2.3360 ss         1 E8S      -0.155800
     30 C50         -3.4240     2.2210     5.0750 c          1 E8S       0.651100
     31 O51         -3.0990     1.6990     6.1200 o          1 E8S      -0.542100
     32 N52         -4.6110     2.8510     4.9750 ns         1 E8S      -0.471400
     33 O54         -5.4810     2.9030     6.0920 oh         1 E8S      -0.358100
     34 H1          -0.5420    -0.0000    -0.9380 ha         1 E8S       0.145000
     35 H2           0.0300     0.7440     7.1530 ha         1 E8S       0.158000
     36 H3          -3.0430     5.2960    10.5920 h2         1 E8S       0.069700
     37 H4          -4.0580     4.1150     9.6690 h2         1 E8S       0.069700
     38 H5           3.8280     0.8830    -0.5640 h1         1 E8S       0.045367
     39 H6           3.8290    -0.8860    -0.5770 h1         1 E8S       0.045367
     40 H7           3.9100     0.0090    -2.1010 h1         1 E8S       0.045367
     41 H8           3.1620    -0.0000     1.2050 ha         1 E8S       0.145000
     42 H9           1.9240    -0.0010     3.3360 ha         1 E8S       0.149500
     43 H10         -1.7720    -0.0010     1.1970 ha         1 E8S       0.149500
     44 H11          0.7090     1.8610     5.0510 h1         1 E8S       0.060200
     45 H12         -0.1140     3.3370     4.5270 h1         1 E8S       0.060200
     46 H13         -0.7850     1.0980     9.4510 ha         1 E8S       0.143000
     47 H14         -1.5700     4.5270     5.9860 ha         1 E8S       0.128000
     48 H15         -2.9450     1.5590     3.1090 h1         1 E8S       0.093700
     49 H16         -3.2030     4.0030     3.0250 hc         1 E8S       0.065700
     50 H17         -1.8490     4.1970     4.1460 hc         1 E8S       0.065700
     51 H18         -2.6740     3.3540     0.5930 ha         1 E8S       0.145000
     52 H19         -0.7170     3.3050    -1.0430 ha         1 E8S       0.150000
     53 H20          1.5670     3.4800     0.0540 h4         1 E8S       0.171000
     54 H21         -4.8950     3.2480     4.1020 hn         1 E8S       0.317500
     55 H22         -6.3760     2.8960     5.7940 ho         1 E8S       0.395000
@<TRIPOS>BOND
     1     9    10 1
     2    10    11 1
     3    12    11 ar
     4    12    13 ar
     5    11     1 ar
     6    13    14 ar
     7     1    15 ar
     8    14    15 ar
     9    14    16 1
    10    18     4 1
    11    18     3 1
    12    22    21 ar
    13    22     4 ar
    14     8    21 1
    15     8     7 1
    16    21     6 ar
    17     4     5 ar
    18     2    16 2
    19    31    30 2
    20     7    20 1
    21    16     3 1
    22    16    17 2
    23     6    20 1
    24     6    19 ar
    25     5    19 ar
    26     3    23 1
    27    30    23 1
    28    30    32 1
    29    33    32 1
    30    23    24 1
    31    24    25 1
    32    29    25 1
    33    29    28 1
    34    25    26 2
    35    28    27 2
    36    26    27 1
    37     1    34 1
    38     5    35 1
    39     7    36 1
    40     7    37 1
    41     9    38 1
    42     9    39 1
    43     9    40 1
    44    12    41 1
    45    13    42 1
    46    15    43 1
    47    18    44 1
    48    18    45 1
    49    19    46 1
    50    22    47 1
    51    23    48 1
    52    24    49 1
    53    24    50 1
    54    26    51 1
    55    27    52 1
    56    28    53 1
    57    32    54 1
    58    33    55 1
@<TRIPOS>SUBSTRUCTURE
     1 E8S         1 TEMP              0 ****  ****    0 ROOT
