@<TRIPOS>MOLECULE
E8U
   21    20     1     0     0
SMALL
bcc


@<TRIPOS>ATOM
      1 OAC        -0.0010   -0.4250   -0.1700 oh        1 E8U     -0.624800
      2 CAM         1.3790   -0.1120   -0.0030 c3        1 E8U      0.148100
      3 CAF         1.6250    0.0630    1.4950 c3        1 E8U     -0.058400
      4 CAK         1.6770   -1.2570    2.2250 c3        1 E8U     -0.182400
      5 CAI         2.0520   -1.1080    3.7050 c         1 E8U      0.904600
      6 OAD         2.8740   -0.2110    4.0560 o         1 E8U     -0.868300
      7 OAA         1.5380   -1.9250    4.5300 o         1 E8U     -0.868300
      8 CAG         1.7460    1.1480   -0.7840 c3        1 E8U     -0.226400
      9 CAL         1.6150    1.0220   -2.2770 c         1 E8U      0.476100
     10 CAJ         2.1570    2.2090   -3.0840 c         1 E8U      0.851600
     11 OAE         3.3660    2.1720   -3.4390 o         1 E8U     -0.827300
     12 OAB         1.3600    3.1570   -3.3270 o         1 E8U     -0.827300
     13 O10         1.0880    0.0310   -2.8060 o         1 E8U     -0.618100
     14 HAC        -0.1370   -0.5460   -1.1190 ho        1 E8U      0.406000
     15 HAM         1.9930   -0.9720   -0.3970 h1        1 E8U      0.023700
     16 HAF1        0.8080    0.6970    1.9270 hc        1 E8U      0.047700
     17 HAF2        2.5940    0.6050    1.6490 hc        1 E8U      0.047700
     18 HAG1        1.0870    1.9960   -0.4600 hc        1 E8U      0.073700
     19 HAG2        2.8070    1.4300   -0.5540 hc        1 E8U      0.073700
     20 HAK1        2.4430   -1.9230    1.7520 hc        1 E8U      0.023200
     21 HAK2        0.6860   -1.7720    2.1470 hc        1 E8U      0.023200
@<TRIPOS>BOND
     1    1    2 1   
     2    1   14 1   
     3    2    3 1   
     4    2    8 1   
     5    2   15 1   
     6    3    4 1   
     7    3   16 1   
     8    3   17 1   
     9    4    5 1   
    10    4   20 1   
    11    4   21 1   
    12    5    6 1   
    13    5    7 1   
    14    8    9 1   
    15    8   18 1   
    16    8   19 1   
    17    9   10 1   
    18    9   13 2   
    19   10   11 1   
    20   10   12 1   
@<TRIPOS>SUBSTRUCTURE
     1 E8U         1 TEMP              0 ****  ****    0 ROOT
