@<TRIPOS>MOLECULE
molecule
   21    20     1     0     0
SMALL
bcc


@<TRIPOS>ATOM
      1 OAC          0.0000     0.0000     0.0000 oh         1 E8U      -0.611800
      2 CAM          1.4280     0.0000     0.0000 c3         1 E8U       0.144100
      3 CAF          1.9390     0.0000     1.4420 c3         1 E8U      -0.076400
      4 CAK          1.5350    -1.3070     2.1260 c3         1 E8U      -0.181400
      5 CAI          2.0380    -1.3070     3.5460 c          1 E8U       0.892600
      6 OAD          2.6560    -0.3590     3.9690 o          1 E8U      -0.870800
      7 OAA          1.7990    -2.3610     4.3430 o          1 E8U      -0.870800
      8 CAG          1.9380     1.2500    -0.7220 c3         1 E8U      -0.194400
      9 CAL          1.5390     1.1890    -2.1740 c          1 E8U       0.480100
     10 CAJ          1.9190     2.2960    -3.0970 c          1 E8U       0.805600
     11 OAE          2.5480     3.2450    -2.6810 o          1 E8U      -0.831300
     12 OAB          1.5620     2.2420    -4.3940 o          1 E8U      -0.831300
     13 O10          0.9120     0.2450    -2.5890 o          1 E8U      -0.563100
     14 HAC         -0.3140    -0.7830    -0.4200 ho         1 E8U       0.391000
     15 HAM          1.7890    -0.8840    -0.5110 h1         1 E8U       0.024700
     16 HAF1         3.0180     0.0890     1.4430 hc         1 E8U       0.049700
     17 HAF2         1.5070     0.8370     1.9780 hc         1 E8U       0.049700
     18 HAG1         3.0180     1.2960    -0.6450 hc         1 E8U       0.068700
     19 HAG2         1.5060     2.1320    -0.2650 hc         1 E8U       0.068700
     20 HAK1         0.4550    -1.3970     2.1260 hc         1 E8U       0.027200
     21 HAK2         1.9660    -2.1440     1.5900 hc         1 E8U       0.027200
@<TRIPOS>BOND
     1     1     2 1
     2     2     3 1
     3     2     8 1
     4     3     4 1
     5     4     5 1
     6     5     6 1
     7     5     7 1
     8     8     9 1
     9     9    10 1
    10     9    13 2
    11    10    11 1
    12    10    12 1
    13     1    14 1
    14     2    15 1
    15     3    16 1
    16     3    17 1
    17     8    18 1
    18     8    19 1
    19     4    20 1
    20     4    21 1
@<TRIPOS>SUBSTRUCTURE
     1 E8U         1 TEMP              0 ****  ****    0 ROOT
