@<TRIPOS>MOLECULE
E8V
   35    37     1     0     0
SMALL
bcc


@<TRIPOS>ATOM
      1 C4           0.0000     0.0000     0.0000 cp         1 E8V      -0.167300
      2 C14         -0.7640    -0.0140    -3.6820 ca         1 E8V       0.105400
      3 C5           1.3980     0.0000     0.0000 ca         1 E8V      -0.049000
      4 C6           3.5390     0.0000     1.2840 cp         1 E8V       0.011000
      5 C11          5.6470    -0.9240     0.5930 ca         1 E8V       0.098400
      6 C7          -0.7500    -0.0060    -1.2790 cp         1 E8V       0.014000
      7 C8           4.2070     0.9250     2.0850 ca         1 E8V      -0.121500
      8 C9           5.5880     0.9220     2.1380 ca         1 E8V       0.098400
      9 C10          6.3100    -0.0000     1.3920 ca         1 E8V       0.068100
     10 C12          4.2670    -0.9280     0.5410 ca         1 E8V      -0.121500
     11 C13         -0.0640    -0.0080    -2.4920 ca         1 E8V      -0.133500
     12 N1          -0.0230     0.0020     2.3600 nb         1 E8V      -0.586000
     13 C3          -0.6790     0.0020     1.2160 ca         1 E8V       0.424200
     14 C1           2.0570     0.0000     1.2270 cp         1 E8V      -0.163300
     15 C2           1.2990     0.0010     2.4070 ca         1 E8V       0.518200
     16 C15         -2.1530    -0.0200    -3.6710 ca         1 E8V       0.066100
     17 C16         -2.8410    -0.0190    -2.4640 ca         1 E8V       0.105400
     18 C17         -2.1440    -0.0110    -1.2710 ca         1 E8V      -0.133500
     19 F1           6.2350     1.8180     2.9140 f          1 E8V      -0.114900
     20 O1           7.6690    -0.0020     1.4460 oh         1 E8V      -0.473100
     21 F2           6.3530    -1.8230    -0.1270 f          1 E8V      -0.114900
     22 F3          -4.1920    -0.0230    -2.4570 f          1 E8V      -0.114400
     23 O2          -2.8420    -0.0250    -4.8450 oh         1 E8V      -0.472100
     24 F4          -0.0990    -0.0100    -4.8580 f          1 E8V      -0.114400
     25 H1           1.9400     0.2440    -0.9060 ha         1 E8V       0.123000
     26 H2           3.6440     1.6460     2.6650 ha         1 E8V       0.130500
     27 H3           3.7500    -1.6480    -0.0830 ha         1 E8V       0.130500
     28 H4           1.0200    -0.0040    -2.5010 ha         1 E8V       0.132500
     29 H5           1.9950     0.8450     4.1720 hn         1 E8V       0.282800
     30 H6           2.3000    -0.8540     4.0140 hn         1 E8V       0.282800
     31 H7          -1.7630     0.0020     1.2220 h4         1 E8V      -0.011900
     32 H8          -2.6800    -0.0110    -0.3300 ha         1 E8V       0.132500
     33 H9           8.0110     0.5690     0.7770 ho         1 E8V       0.409000
     34 H10         -2.9970    -0.9160    -5.1140 ho         1 E8V       0.409000
     35 N2           1.9420     0.0010     3.6360 nv         1 E8V      -0.652500
@<TRIPOS>BOND
     1     1     3 ar  
     2     1     6 1   
     3     1    13 ar  
     4     2    11 ar  
     5     2    16 ar  
     6     2    24 1   
     7     3    14 ar  
     8     3    25 1   
     9     4     7 ar  
    10     4    10 ar  
    11     4    14 1   
    12     5     9 ar  
    13     5    10 ar  
    14     5    21 1   
    15     6    11 ar  
    16     6    18 ar  
    17     7     8 ar  
    18     7    26 1   
    19     8     9 ar  
    20     8    19 1   
    21     9    20 1   
    22    10    27 1   
    23    11    28 1   
    24    12    13 ar  
    25    12    15 ar  
    26    13    31 1   
    27    14    15 ar  
    28    15    35 1   
    29    16    17 ar  
    30    16    23 1   
    31    17    18 ar  
    32    17    22 1   
    33    18    32 1   
    34    20    33 1   
    35    23    34 1   
    36    29    35 1   
    37    30    35 1   
@<TRIPOS>SUBSTRUCTURE
     1 E8V         1 TEMP              0 ****  ****    0 ROOT
