@<TRIPOS>MOLECULE
E8Z
   37    39     1     0     0
SMALL
bcc


@<TRIPOS>ATOM
      1 OAD          0.0000     0.0000     0.0000 o          1 E8Z      -0.591100
      2 CAT          1.2180     0.0000     0.0000 c          1 E8Z       0.676900
      3 CAV          2.0040     0.0000     1.2510 ca         1 E8Z      -0.243600
      4 CAJ          1.4090     0.2630     2.4830 ca         1 E8Z      -0.001000
      5 CAF          2.1810     0.2600     3.6250 ca         1 E8Z      -0.137000
      6 CAE          3.5410    -0.0030     3.5460 ca         1 E8Z      -0.037000
      7 CAI          4.1390    -0.2670     2.3320 ca         1 E8Z      -0.134000
      8 CAU          3.3800    -0.2720     1.1680 ca         1 E8Z       0.151100
      9 OAN          3.9540    -0.5410    -0.0210 os         1 E8Z      -0.173200
     10 CAK          3.3410    -0.2670    -1.1660 cc         1 E8Z       0.215100
     11 CAS          2.0040    -0.0070    -1.2510 cd         1 E8Z      -0.416400
     12 CAO          1.3660     0.2650    -2.5510 c          1 E8Z       0.618300
     13 OAC          2.0320     0.2550    -3.5690 o          1 E8Z      -0.670100
     14 NAM          0.0450     0.5240    -2.6110 ns         1 E8Z      -0.044100
     15 CAR         -0.5430     0.8780    -3.8300 ca         1 E8Z      -0.090400
     16 CAL         -1.5810     1.7990    -3.8600 ca         1 E8Z      -0.125000
     17 CAQ         -2.1590     2.1450    -5.0660 ca         1 E8Z      -0.076300
     18 CAB         -3.2860     3.1460    -5.1010 c3         1 E8Z       0.063200
     19 CAP         -1.7060     1.5750    -6.2420 ca         1 E8Z      -0.104300
     20 CAA         -2.3390     1.9550    -7.5560 c3         1 E8Z       0.064200
     21 CAG         -0.6720     0.6570    -6.2140 ca         1 E8Z      -0.082000
     22 CAH         -0.0870     0.3100    -5.0130 ca         1 E8Z      -0.109000
     23 H1           0.3480     0.4690     2.5430 ha         1 E8Z       0.124000
     24 H2           1.7250     0.4660     4.5860 ha         1 E8Z       0.113000
     25 H3           4.1390    -0.0040     4.4490 ha         1 E8Z       0.107000
     26 H4           5.2020    -0.4710     2.2860 ha         1 E8Z       0.121000
     27 H5           3.9250    -0.2740    -2.0790 h4         1 E8Z       0.163000
     28 H8          -0.5220     0.4240    -1.7920 hn         1 E8Z       0.215500
     29 H9          -1.8950     2.2910    -2.9480 ha         1 E8Z       0.110000
     30 H10         -2.9970     3.9950    -5.7080 hc         1 E8Z       0.007367
     31 H11         -4.1680     2.6820    -5.5250 hc         1 E8Z       0.007367
     32 H12         -3.5030     3.4790    -4.0930 hc         1 E8Z       0.007367
     33 H13         -2.2220     3.0200    -7.7180 hc         1 E8Z       0.006700
     34 H14         -3.3930     1.7070    -7.5340 hc         1 E8Z       0.006700
     35 H15         -1.8570     1.4120    -8.3590 hc         1 E8Z       0.006700
     36 H16         -0.3180     0.2130    -7.1370 ha         1 E8Z       0.105000
     37 H17          0.7230    -0.4090    -4.9920 ha         1 E8Z       0.144000
@<TRIPOS>BOND
     1     1     2 2   
     2     2     3 1   
     3     2    11 1   
     4     3     4 ar  
     5     3     8 ar  
     6     4     5 ar  
     7     4    23 1   
     8     5     6 ar  
     9     5    24 1   
    10     6     7 ar  
    11     6    25 1   
    12     7     8 ar  
    13     7    26 1   
    14     8     9 1   
    15     9    10 1   
    16    10    11 2   
    17    10    27 1   
    18    11    12 1   
    19    12    13 2   
    20    12    14 1   
    21    14    15 1   
    22    14    28 1   
    23    15    16 ar  
    24    15    22 ar  
    25    16    17 ar  
    26    16    29 1   
    27    17    18 1   
    28    17    19 ar  
    29    18    30 1   
    30    18    31 1   
    31    18    32 1   
    32    19    20 1   
    33    19    21 ar  
    34    20    33 1   
    35    20    34 1   
    36    20    35 1   
    37    21    22 ar  
    38    21    36 1   
    39    22    37 1   
@<TRIPOS>SUBSTRUCTURE
     1 E8Z         1 TEMP              0 ****  ****    0 ROOT
