@<TRIPOS>MOLECULE
molecule
   37    39     1     0     0
SMALL
bcc


@<TRIPOS>ATOM
      1 OAD          0.0000     0.0000     0.0000 o          1 E8Z      -0.554100
      2 CAT          1.2180     0.0000     0.0000 c          1 E8Z       0.602900
      3 CAV          2.0040     0.0000     1.2510 ca         1 E8Z      -0.221600
      4 CAJ          1.4090     0.2630     2.4830 ca         1 E8Z      -0.041000
      5 CAF          2.1810     0.2600     3.6250 ca         1 E8Z      -0.157000
      6 CAE          3.5410    -0.0030     3.5460 ca         1 E8Z      -0.074000
      7 CAI          4.1390    -0.2670     2.3320 ca         1 E8Z      -0.147000
      8 CAU          3.3800    -0.2720     1.1680 ca         1 E8Z       0.141100
      9 OAN          3.9540    -0.5410    -0.0210 os         1 E8Z      -0.198200
     10 CAK          3.3410    -0.2670    -1.1660 cc         1 E8Z       0.169100
     11 CAS          2.0040    -0.0070    -1.2510 cd         1 E8Z      -0.378400
     12 CAO          1.3660     0.2650    -2.5510 c          1 E8Z       0.701300
     13 OAC          2.0320     0.2550    -3.5690 o          1 E8Z      -0.623100
     14 NAM          0.0450     0.5240    -2.6110 ns         1 E8Z      -0.467100
     15 CAR         -0.5430     0.8780    -3.8300 ca         1 E8Z       0.053600
     16 CAL         -1.5810     1.7990    -3.8600 ca         1 E8Z      -0.152000
     17 CAQ         -2.1590     2.1450    -5.0660 ca         1 E8Z      -0.070300
     18 CAB         -3.2860     3.1460    -5.1010 c3         1 E8Z      -0.044800
     19 CAP         -1.7060     1.5750    -6.2420 ca         1 E8Z      -0.100300
     20 CAA         -2.3390     1.9550    -7.5560 c3         1 E8Z      -0.042800
     21 CAG         -0.6720     0.6570    -6.2140 ca         1 E8Z      -0.111000
     22 CAH         -0.0870     0.3100    -5.0130 ca         1 E8Z      -0.131000
     23 H1           0.3480     0.4690     2.5430 ha         1 E8Z       0.159000
     24 H2           1.7250     0.4660     4.5860 ha         1 E8Z       0.143000
     25 H3           4.1390    -0.0040     4.4490 ha         1 E8Z       0.143000
     26 H4           5.2020    -0.4710     2.2860 ha         1 E8Z       0.152000
     27 H5           3.9250    -0.2740    -2.0790 h4         1 E8Z       0.216000
     28 H8          -0.5220     0.4240    -1.7920 hn         1 E8Z       0.357500
     29 H9          -1.8950     2.2910    -2.9480 ha         1 E8Z       0.133000
     30 H10         -2.9970     3.9950    -5.7080 hc         1 E8Z       0.042033
     31 H11         -4.1680     2.6820    -5.5250 hc         1 E8Z       0.042033
     32 H12         -3.5030     3.4790    -4.0930 hc         1 E8Z       0.042033
     33 H13         -2.2220     3.0200    -7.7180 hc         1 E8Z       0.040700
     34 H14         -3.3930     1.7070    -7.5340 hc         1 E8Z       0.040700
     35 H15         -1.8570     1.4120    -8.3590 hc         1 E8Z       0.040700
     36 H16         -0.3180     0.2130    -7.1370 ha         1 E8Z       0.132000
     37 H17          0.7230    -0.4090    -4.9920 ha         1 E8Z       0.162000
@<TRIPOS>BOND
     1     5     6 ar
     2     5     4 ar
     3     6     7 ar
     4     4     3 ar
     5     7     8 ar
     6     3     8 ar
     7     3     2 1
     8     8     9 1
     9     1     2 2
    10     2    11 1
    11     9    10 1
    12    11    10 2
    13    11    12 1
    14    12    14 1
    15    12    13 2
    16    14    15 1
    17    15    22 ar
    18    15    16 ar
    19    22    21 ar
    20    16    17 ar
    21    21    19 ar
    22    17    19 ar
    23    17    18 1
    24    19    20 1
    25     4    23 1
    26     5    24 1
    27     6    25 1
    28     7    26 1
    29    10    27 1
    30    14    28 1
    31    16    29 1
    32    18    30 1
    33    18    31 1
    34    18    32 1
    35    20    33 1
    36    20    34 1
    37    20    35 1
    38    21    36 1
    39    22    37 1
@<TRIPOS>SUBSTRUCTURE
     1 E8Z         1 TEMP              0 ****  ****    0 ROOT
