@<TRIPOS>MOLECULE
E90
   32    33     1     0     0
SMALL
bcc


@<TRIPOS>ATOM
      1 N1           0.0000     0.0000     0.0000 nb         1 E90      -0.626000
      2 C2           1.3260     0.0000     0.0000 ca         1 E90       0.729300
      3 N3           2.0190     0.0000     1.1290 nb         1 E90      -0.626000
      4 C4           1.4030     0.0000     2.3010 ca         1 E90       0.461700
      5 C5           0.0170     0.0000     2.3360 ca         1 E90      -0.341600
      6 C6          -0.6770     0.0000     1.1360 ca         1 E90       0.461700
      7 S7           2.1860    -0.0020    -1.5370 ss         1 E90      -0.308400
      8 C8           3.8960    -0.0020    -0.9400 c3         1 E90      -0.031300
      9 C9           4.8380    -0.0030    -2.1160 c          1 E90       0.607700
     10 O10          4.3970    -0.0030    -3.2460 o          1 E90      -0.479100
     11 C11          6.2930    -0.0030    -1.8930 ca         1 E90      -0.068600
     12 C12          6.8040    -0.0080    -0.5920 ca         1 E90      -0.067000
     13 C13          8.1670    -0.0080    -0.3910 ca         1 E90       0.003500
     14 C14          9.0310    -0.0040    -1.4740 ca         1 E90      -0.215500
     15 C15          8.5320     0.0020    -2.7640 ca         1 E90       0.003500
     16 C16          7.1710    -0.0030    -2.9820 ca         1 E90      -0.067000
     17 S17         10.7720    -0.0040    -1.2070 sy         1 E90       0.936200
     18 O18         11.3580     0.5450    -2.3790 o          1 E90      -0.492800
     19 O19         10.9790     0.5350     0.0920 o          1 E90      -0.492800
     20 N20         11.2570    -1.5860    -1.1390 nz         1 E90      -0.130500
     21 H4           1.9750     0.0000     3.2210 h4         1 E90      -0.008900
     22 H5          -0.5120     0.0010     3.2810 ha         1 E90       0.132000
     23 H6          -1.7600     0.0010     1.1290 h4         1 E90      -0.008900
     24 H8           4.0680     0.8840    -0.3400 h1         1 E90       0.069200
     25 H8A          4.0680    -0.8850    -0.3380 h1         1 E90       0.069200
     26 H12          6.1300    -0.0110     0.2560 ha         1 E90       0.146000
     27 H13          8.5650    -0.0120     0.6160 ha         1 E90       0.128500
     28 H15          9.2130     0.0030    -3.6070 ha         1 E90       0.128500
     29 H16          6.7820     0.0010    -3.9930 ha         1 E90       0.146000
     30 HN20        10.7850    -2.0470    -0.3860 hn         1 E90       0.314133
     31 HN2A        11.0330    -2.0410    -2.0010 hn         1 E90       0.314133
     32 H203        12.2450    -1.6260    -0.9870 hn         1 E90       0.314133
@<TRIPOS>BOND
     1     1     2 ar  
     2     1     6 ar  
     3     2     3 ar  
     4     2     7 1   
     5     3     4 ar  
     6     4     5 ar  
     7     4    21 1   
     8     5     6 ar  
     9     5    22 1   
    10     6    23 1   
    11     7     8 1   
    12     8     9 1   
    13     8    24 1   
    14     8    25 1   
    15     9    10 2   
    16     9    11 1   
    17    11    12 ar  
    18    11    16 ar  
    19    12    13 ar  
    20    12    26 1   
    21    13    14 ar  
    22    13    27 1   
    23    14    15 ar  
    24    14    17 1   
    25    15    16 ar  
    26    15    28 1   
    27    16    29 1   
    28    17    18 2   
    29    17    19 2   
    30    17    20 1   
    31    20    30 1   
    32    20    31 1   
    33    20    32 1   
@<TRIPOS>SUBSTRUCTURE
     1 E90         1 TEMP              0 ****  ****    0 ROOT
