@<TRIPOS>MOLECULE
E91
   38    42     1     0     0
SMALL
bcc


@<TRIPOS>ATOM
      1 O01          0.0000     0.0000     0.0000 o          1 E91      -0.598500
      2 C02          1.2150     0.0000     0.0000 c2         1 E91       0.403000
      3 O03          1.8880     0.0000     1.1670 o          1 E91      -0.598500
      4 C04          1.9540    -0.0060    -1.2790 c2         1 E91       0.015000
      5 C05          3.3510    -0.0110    -1.2780 c2         1 E91      -0.118000
      6 C06          4.0360    -0.0150    -2.4600 c2         1 E91      -0.048000
      7 C07          3.3370    -0.0150    -3.6740 c3         1 E91      -0.231000
      8 C08          4.0720    -0.0210    -4.9450 c2         1 E91      -0.262000
      9 N09          3.4160    -0.0200    -6.0810 n2         1 E91      -0.140000
     10 N10          4.0610    -0.0240    -7.1980 n2         1 E91       0.032000
     11 C11          3.4020    -0.0240    -8.3390 c2         1 E91      -0.029000
     12 C12          1.9340    -0.0130    -8.5040 ca         1 E91      -0.044000
     13 C13          0.8870    -0.0000    -7.5870 ca         1 E91      -0.058500
     14 C14         -0.4200     0.0080    -8.0340 ca         1 E91      -0.115500
     15 C15         -0.6950     0.0050    -9.3910 ca         1 E91      -0.116500
     16 C16          0.3340    -0.0080   -10.3150 ca         1 E91      -0.084000
     17 C17          1.6570    -0.0160    -9.8830 cp         1 E91      -0.031000
     18 C18          2.9400    -0.0310   -10.6230 cq         1 E91      -0.031000
     19 C19          3.2280    -0.0390   -11.9850 ca         1 E91      -0.084000
     20 C20          4.5420    -0.0520   -12.4120 ca         1 E91      -0.116500
     21 C21          5.5800    -0.0570   -11.4960 ca         1 E91      -0.115500
     22 C22          5.3130    -0.0490   -10.1410 ca         1 E91      -0.058500
     23 C23          3.9940    -0.0290    -9.6930 ca         1 E91      -0.044000
     24 C24          1.9360    -0.0110    -3.6730 c2         1 E91      -0.048000
     25 C25          1.2540    -0.0110    -2.4890 c2         1 E91      -0.118000
     26 H2           3.8920    -0.0110    -0.3390 ha         1 E91       0.137000
     27 H3           5.1190    -0.0190    -2.4580 ha         1 E91       0.108000
     28 H4           3.6030    -0.8930    -4.5060 DU         1 E91       0.319000
     29 H6           1.0960     0.0020    -6.5240 ha         1 E91       0.121500
     30 H7          -1.2340     0.0190    -7.3190 ha         1 E91       0.101000
     31 H8          -1.7230     0.0120    -9.7310 ha         1 E91       0.095500
     32 H10          0.1090    -0.0110   -11.3740 ha         1 E91       0.097500
     33 H11          2.5380    -0.0380   -12.8200 ha         1 E91       0.097500
     34 H12          4.7800    -0.0580   -13.4690 ha         1 E91       0.095500
     35 H13          6.6020    -0.0680   -11.8530 ha         1 E91       0.101000
     36 H14          6.1970    -0.0550    -9.5150 ha         1 E91       0.121500
     37 H15          1.3940    -0.0120    -4.6100 ha         1 E91       0.108000
     38 H16          0.1710    -0.0070    -2.4880 ha         1 E91       0.137000
@<TRIPOS>BOND
     1     1     2 1   
     2     2     3 1   
     3     2     4 1   
     4     4     5 1   
     5     4    25 1   
     6     5     6 1   
     7     5    26 1   
     8     6     7 1   
     9     6    27 1   
    10     7     8 1   
    11     7    24 1   
    12     7    28 1   
    13     8     9 1   
    14     8    28 1   
    15     9    10 1   
    16    10    11 1   
    17    11    12 1   
    18    11    23 1   
    19    12    13 1   
    20    12    17 1   
    21    13    14 1   
    22    13    29 1   
    23    14    15 1   
    24    14    30 1   
    25    15    16 1   
    26    15    31 1   
    27    16    17 1   
    28    16    32 1   
    29    17    18 1   
    30    18    19 1   
    31    18    23 1   
    32    19    20 1   
    33    19    33 1   
    34    20    21 1   
    35    20    34 1   
    36    21    22 1   
    37    21    35 1   
    38    22    23 1   
    39    22    36 1   
    40    24    25 1   
    41    24    37 1   
    42    25    38 1   
@<TRIPOS>SUBSTRUCTURE
     1 E91         1 TEMP              0 ****  ****    0 ROOT
