@<TRIPOS>MOLECULE
molecule
   38    41     1     0     0
SMALL
bcc


@<TRIPOS>ATOM
      1 O01          0.0000     0.0000     0.0000 o          1 E91      -0.827300
      2 C02          1.2150     0.0000     0.0000 c          1 E91       0.875200
      3 O03          1.8880     0.0000     1.1670 o          1 E91      -0.827300
      4 C04          1.9540    -0.0060    -1.2790 ca         1 E91      -0.058600
      5 C05          3.3510    -0.0110    -1.2780 ca         1 E91      -0.122000
      6 C06          4.0360    -0.0150    -2.4600 ca         1 E91      -0.104500
      7 C07          3.3370    -0.0150    -3.6740 ca         1 E91      -0.211900
      8 C08          4.0720    -0.0210    -4.9450 ce         1 E91       0.568800
      9 N09          3.4160    -0.0200    -6.0810 nf         1 E91      -0.504700
     10 N10          4.0610    -0.0240    -7.1980 nf         1 E91      -0.385700
     11 C11          3.4020    -0.0240    -8.3390 cc         1 E91       0.496500
     12 C12          1.9340    -0.0130    -8.5040 ca         1 E91      -0.130900
     13 C13          0.8870    -0.0000    -7.5870 ca         1 E91      -0.078000
     14 C14         -0.4200     0.0080    -8.0340 ca         1 E91      -0.141000
     15 C15         -0.6950     0.0050    -9.3910 ca         1 E91      -0.135000
     16 C16          0.3340    -0.0080   -10.3150 ca         1 E91      -0.114000
     17 C17          1.6570    -0.0160    -9.8830 cp         1 E91      -0.032000
     18 C18          2.9400    -0.0310   -10.6230 cp         1 E91      -0.032000
     19 C19          3.2280    -0.0390   -11.9850 ca         1 E91      -0.114000
     20 C20          4.5420    -0.0520   -12.4120 ca         1 E91      -0.135000
     21 C21          5.5800    -0.0570   -11.4960 ca         1 E91      -0.141000
     22 C22          5.3130    -0.0490   -10.1410 ca         1 E91      -0.078000
     23 C23          3.9940    -0.0290    -9.6930 ca         1 E91      -0.130900
     24 C24          1.9360    -0.0110    -3.6730 ca         1 E91      -0.104500
     25 C25          1.2540    -0.0110    -2.4890 ca         1 E91      -0.122000
     26 H2           3.8920    -0.0110    -0.3390 ha         1 E91       0.156500
     27 H3           5.1190    -0.0190    -2.4580 ha         1 E91       0.119000
     28 H4           5.1550    -0.0250    -4.9450 h4         1 E91      -0.021200
     29 H6           1.0960     0.0020    -6.5240 ha         1 E91       0.154000
     30 H7          -1.2340     0.0190    -7.3190 ha         1 E91       0.129000
     31 H8          -1.7230     0.0120    -9.7310 ha         1 E91       0.122500
     32 H10          0.1090    -0.0110   -11.3740 ha         1 E91       0.124500
     33 H11          2.5380    -0.0380   -12.8200 ha         1 E91       0.124500
     34 H12          4.7790    -0.0580   -13.4690 ha         1 E91       0.122500
     35 H13          6.6020    -0.0670   -11.8540 ha         1 E91       0.129000
     36 H14          6.2040    -0.0560    -9.5250 ha         1 E91       0.154000
     37 H15          1.3940    -0.0120    -4.6100 ha         1 E91       0.119000
     38 H16          0.1710    -0.0070    -2.4880 ha         1 E91       0.156500
@<TRIPOS>BOND
     1     1     2 1
     2     2     3 1
     3     2     4 1
     4     5     4 ar
     5     5     6 ar
     6     4    25 ar
     7     6     7 ar
     8    25    24 ar
     9     7    24 ar
    10     7     8 1
    11     8     9 2
    12     9    10 1
    13    10    11 2
    14    22    21 ar
    15    22    23 ar
    16    21    20 ar
    17    11    23 1
    18    11    12 1
    19    23    18 ar
    20    20    19 ar
    21    12    13 ar
    22    12    17 ar
    23    18    19 ar
    24    18    17 1
    25    13    14 ar
    26    17    16 ar
    27    14    15 ar
    28    16    15 ar
    29     5    26 1
    30     6    27 1
    31     8    28 1
    32    13    29 1
    33    14    30 1
    34    15    31 1
    35    16    32 1
    36    19    33 1
    37    20    34 1
    38    21    35 1
    39    22    36 1
    40    24    37 1
    41    25    38 1
@<TRIPOS>SUBSTRUCTURE
     1 E91         1 TEMP              0 ****  ****    0 ROOT
