@<TRIPOS>MOLECULE
molecule
   31    33     1     0     0
SMALL
bcc


@<TRIPOS>ATOM
      1 OAB          0.0000     0.0000     0.0000 o          1 E92      -0.554100
      2 CAS          1.2180     0.0000     0.0000 c          1 E92       0.603900
      3 CAU          2.0040     0.0000     1.2530 ca         1 E92      -0.220600
      4 CAJ          1.4080     0.2630     2.4830 ca         1 E92      -0.041000
      5 CAE          2.1800     0.2590     3.6260 ca         1 E92      -0.155000
      6 CAD          3.5400    -0.0040     3.5480 ca         1 E92      -0.073000
      7 CAI          4.1390    -0.2660     2.3350 ca         1 E92      -0.146000
      8 CAT          3.3800    -0.2710     1.1700 ca         1 E92       0.140100
      9 OAN          3.9550    -0.5380    -0.0180 os         1 E92      -0.198200
     10 CAK          3.3430    -0.2650    -1.1650 cc         1 E92       0.174100
     11 CAR          2.0050    -0.0050    -1.2500 cd         1 E92      -0.381400
     12 CAO          1.3680     0.2670    -2.5500 c          1 E92       0.704300
     13 OAA          2.0340     0.2580    -3.5670 o          1 E92      -0.621100
     14 NAM          0.0470     0.5270    -2.6100 ns         1 E92      -0.469100
     15 CAQ         -0.5410     0.8800    -3.8300 ca         1 E92       0.067600
     16 CAL         -1.5790     1.8010    -3.8610 ca         1 E92      -0.154000
     17 CAP         -2.1570     2.1490    -5.0660 ca         1 E92       0.043400
     18 Cl          -3.4560     3.3000    -5.1070 cl         1 E92      -0.112400
     19 CAG         -1.7020     1.5780    -6.2420 ca         1 E92      -0.140000
     20 CAF         -0.6690     0.6610    -6.2140 ca         1 E92      -0.107000
     21 CAH         -0.0830     0.3140    -5.0120 ca         1 E92      -0.130000
     22 H1           0.3460     0.4680     2.5430 ha         1 E92       0.160000
     23 H2           1.7240     0.4630     4.5870 ha         1 E92       0.144000
     24 H3           4.1380    -0.0050     4.4510 ha         1 E92       0.144000
     25 H4           5.2020    -0.4690     2.2890 ha         1 E92       0.152000
     26 H5           3.9270    -0.2700    -2.0770 h4         1 E92       0.216000
     27 H6          -0.5190     0.4340    -1.7900 hn         1 E92       0.360500
     28 H7          -1.9090     2.2760    -2.9450 ha         1 E92       0.147000
     29 H8          -2.1580     1.8500    -7.1870 ha         1 E92       0.142000
     30 H9          -0.3130     0.2180    -7.1370 ha         1 E92       0.139000
     31 H10          0.7270    -0.4050    -4.9900 ha         1 E92       0.167000
@<TRIPOS>BOND
     1     5     6 ar
     2     5     4 ar
     3     6     7 ar
     4     4     3 ar
     5     7     8 ar
     6     3     8 ar
     7     3     2 1
     8     8     9 1
     9     1     2 2
    10     2    11 1
    11     9    10 1
    12    11    10 2
    13    11    12 1
    14    12    14 1
    15    12    13 2
    16    14    15 1
    17    15    21 ar
    18    15    16 ar
    19    21    20 ar
    20    16    17 ar
    21    20    19 ar
    22    17    19 ar
    23    17    18 1
    24     4    22 1
    25     5    23 1
    26     6    24 1
    27     7    25 1
    28    10    26 1
    29    14    27 1
    30    16    28 1
    31    19    29 1
    32    20    30 1
    33    21    31 1
@<TRIPOS>SUBSTRUCTURE
     1 E92         1 TEMP              0 ****  ****    0 ROOT
