@<TRIPOS>MOLECULE
molecule
   64    68     1     0     0
SMALL
bcc


@<TRIPOS>ATOM
      1 N3          -1.4320    -0.0120    -2.1320 n1         1 E94      -0.390800
      2 C18         -0.7910    -0.0000    -1.1940 cg         1 E94       0.288800
      3 C17          0.0000     0.0000     0.0000 cd         1 E94      -0.139000
      4 C7           1.4470     0.0000     0.0000 cd         1 E94       0.071000
      5 C3           2.2710     0.0010    -1.2300 ca         1 E94      -0.009000
      6 C2           2.2370     1.0940    -2.0950 ca         1 E94      -0.092000
      7 C4           3.0900    -1.0900    -1.5260 ca         1 E94      -0.089000
      8 C5           3.8560    -1.0830    -2.6730 ca         1 E94      -0.143000
      9 C6           3.8130     0.0010    -3.5310 ca         1 E94      -0.088000
     10 C1           3.0080     1.0890    -3.2410 ca         1 E94       0.015400
     11 Cl           2.9660     2.4490    -4.3200 cl         1 E94      -0.110400
     12 C9          -0.5370     0.0040     1.2630 cc         1 E94       0.211500
     13 N1          -1.8910     0.0100     1.5330 nu         1 E94      -0.759600
     14 C10         -2.3600     0.0150     2.9200 c3         1 E94       0.003800
     15 C11         -3.8900     0.0200     2.9420 c3         1 E94      -0.024200
     16 N2          -4.3610     0.0260     4.3330 n3         1 E94      -0.586600
     17 C16         -5.8100    -0.2060     4.3990 c3         1 E94      -0.281700
     18 C15         -6.2400    -0.3400     5.8610 c3         1 E94      -0.063400
     19 C14         -5.8750     0.9430     6.6140 c3         1 E94      -0.218400
     20 C13         -4.3690     1.1890     6.4890 c3         1 E94      -0.063400
     21 C12         -3.9930     1.2770     5.0080 c3         1 E94      -0.281700
     22 S            0.6800     0.0030     2.4550 ss         1 E94      -0.147800
     23 C8           1.9670     0.0000     1.2620 cc         1 E94      -0.157600
     24 C19          3.4050    -0.0040     1.5790 ca         1 E94       0.600800
     25 C22          3.8410    -0.0040     2.9130 ca         1 E94      -0.436600
     26 C21          5.2000    -0.0080     3.1590 ca         1 E94       0.479200
     27 N5           6.0450    -0.0100     2.1380 nb         1 E94      -0.770000
     28 C20          5.6070    -0.0090     0.8870 ca         1 E94       0.868900
     29 N4           4.3140    -0.0120     0.6020 nb         1 E94      -0.738000
     30 N6           6.5260    -0.0180    -0.1500 nu         1 E94      -0.646300
     31 C23          7.8910     0.1010     0.1260 ca         1 E94       0.141600
     32 C28          8.8220    -0.5530    -0.6720 ca         1 E94      -0.201000
     33 C27         10.1710    -0.4300    -0.4030 ca         1 E94      -0.068000
     34 C26         10.5990     0.3420     0.6610 ca         1 E94      -0.246000
     35 C25          9.6740     0.9970     1.4620 ca         1 E94       0.151100
     36 O           10.0970     1.7540     2.5080 oh         1 E94      -0.479100
     37 C24          8.3200     0.8770     1.1950 ca         1 E94      -0.143000
     38 H2           1.4460     1.8300    -2.1800 ha         1 E94       0.151000
     39 H3           2.5690    -1.9820    -1.2000 ha         1 E94       0.135000
     40 H4           3.9210    -2.1510    -2.8440 ha         1 E94       0.140000
     41 H5           4.2980    -0.0360    -4.4990 ha         1 E94       0.139000
     42 H6          -2.1710    -0.0650     2.4910 hn         1 E94       0.534800
     43 H7          -2.1140    -0.5180     3.8310 h1         1 E94       0.122200
     44 H8          -2.5300     1.0060     3.3250 h1         1 E94       0.122200
     45 H9          -4.3320    -0.8340     3.4400 h1         1 E94       0.184700
     46 H10         -3.9010     0.1320     1.8640 h1         1 E94       0.184700
     47 H20         -6.2570     0.6880     3.9830 h1         1 E94       0.156700
     48 H19         -5.8640    -0.0540     5.4700 h1         1 E94       0.156700
     49 H18         -7.2680    -0.6520     5.7270 hc         1 E94       0.118450
     50 H17         -6.1160    -1.4030     6.0310 hc         1 E94       0.118450
     51 H15         -6.4500     1.6260     6.0000 hc         1 E94       0.081700
     52 H16         -6.4660     0.8220     7.5140 hc         1 E94       0.081700
     53 H14         -4.0050     0.3820     7.1140 hc         1 E94       0.118450
     54 H13         -4.1490     2.1470     6.9440 hc         1 E94       0.118450
     55 H12         -4.1100     1.4290     6.0740 h1         1 E94       0.156700
     56 H11         -4.1410     2.2440     4.5440 h1         1 E94       0.156700
     57 H22          3.2580    -0.1320     3.8160 ha         1 E94       0.145000
     58 H21          5.3130    -0.2920     4.1980 h4         1 E94       0.032100
     59 H23          6.2380    -0.8700    -0.5880 hn         1 E94       0.414800
     60 H28          8.3690    -1.1440    -1.4580 ha         1 E94       0.131000
     61 H27         10.8740    -0.9040    -1.0770 ha         1 E94       0.132000
     62 H26         11.6670     0.5110     0.7240 ha         1 E94       0.132000
     63 H25         11.0330     1.6380     2.4970 ho         1 E94       0.414000
     64 H24          7.5440     1.5530     1.5360 ha         1 E94       0.163000
@<TRIPOS>BOND
     1    20    19 1
     2    20    21 1
     3    19    18 1
     4    21    16 1
     5    18    17 1
     6    33    34 ar
     7    33    32 ar
     8    34    35 ar
     9    16    17 1
    10    16    15 1
    11    32    31 ar
    12    35    36 1
    13    35    37 ar
    14    14    15 1
    15    14    13 1
    16    31    37 ar
    17    31    30 1
    18    13    12 1
    19    30    28 1
    20    22    12 1
    21    22    23 1
    22    12     3 2
    23    28    29 ar
    24    28    27 ar
    25    29    24 ar
    26    27    26 ar
    27    24    23 1
    28    24    25 ar
    29    23     4 2
    30     3     2 1
    31     3     4 1
    32    26    25 ar
    33     2     1 3
    34     4     5 1
    35     5     6 ar
    36     5     7 ar
    37     6    10 ar
    38     7     8 ar
    39    10    11 1
    40    10     9 ar
    41     8     9 ar
    42     6    38 1
    43     7    39 1
    44     8    40 1
    45     9    41 1
    46    13    42 1
    47    14    43 1
    48    14    44 1
    49    15    45 1
    50    15    46 1
    51    17    47 1
    52    17    48 1
    53    18    49 1
    54    18    50 1
    55    19    51 1
    56    19    52 1
    57    20    53 1
    58    20    54 1
    59    21    55 1
    60    21    56 1
    61    25    57 1
    62    26    58 1
    63    30    59 1
    64    32    60 1
    65    33    61 1
    66    34    62 1
    67    36    63 1
    68    37    64 1
@<TRIPOS>SUBSTRUCTURE
     1 E94         1 TEMP              0 ****  ****    0 ROOT
