@<TRIPOS>MOLECULE
E94
   64    70     1     0     0
SMALL
bcc


@<TRIPOS>ATOM
      1 N3          -1.4320    -0.0120    -2.1320 n1         1 E94      -0.082000
      2 C18         -0.7910    -0.0000    -1.1940 c1         1 E94      -0.046000
      3 C17          0.0000     0.0000     0.0000 c2         1 E94      -0.080000
      4 C7           1.4470     0.0000     0.0000 c2         1 E94       0.073000
      5 C3           2.2710     0.0010    -1.2300 ca         1 E94      -0.009000
      6 C2           2.2370     1.0940    -2.0950 ca         1 E94      -0.076000
      7 C4           3.0900    -1.0900    -1.5260 ca         1 E94      -0.079000
      8 C5           3.8560    -1.0830    -2.6730 ca         1 E94      -0.111000
      9 C6           3.8130     0.0010    -3.5310 ca         1 E94      -0.061000
     10 C1           3.0080     1.0890    -3.2410 ca         1 E94      -0.128000
     11 Cl           2.9660     2.4490    -4.3200 cl         1 E94       0.053000
     12 C9          -0.5370     0.0040     1.2630 c2         1 E94      -0.104000
     13 N1          -1.8910     0.0100     1.5330 nu         1 E94      -0.323000
     14 C10         -2.3600     0.0150     2.9200 c3         1 E94      -0.059000
     15 C11         -3.8900     0.0200     2.9420 c3         1 E94      -0.353000
     16 N2          -4.3610     0.0260     4.3330 nx         1 E94       0.100000
     17 C16         -5.8100    -0.2060     4.3990 c3         1 E94      -0.372000
     18 C15         -6.2400    -0.3400     5.8610 DU         1 E94       0.010000
     19 C14         -5.8750     0.9430     6.6140 c3         1 E94      -0.248000
     20 C13         -4.3690     1.1890     6.4890 c3         1 E94       0.039000
     21 C12         -3.9930     1.2770     5.0080 c3         1 E94      -0.646000
     22 S            0.6800     0.0030     2.4550 ss         1 E94       0.278000
     23 C8           1.9670     0.0000     1.2620 c2         1 E94      -0.278000
     24 C19          3.4050    -0.0040     1.5790 c2         1 E94       0.128000
     25 C22          3.8410    -0.0040     2.9130 c2         1 E94      -0.278000
     26 C21          5.2000    -0.0080     3.1590 c2         1 E94      -0.003000
     27 N5           6.0450    -0.0100     2.1380 n2         1 E94      -0.123000
     28 C20          5.6070    -0.0090     0.8870 c2         1 E94      -0.040000
     29 N4           4.3140    -0.0120     0.6020 n2         1 E94      -0.101000
     30 N6           6.5260    -0.0180    -0.1500 nu         1 E94       0.176000
     31 C23          7.8910     0.1010     0.1260 ca         1 E94      -0.060000
     32 C28          8.8220    -0.5530    -0.6720 ca         1 E94      -0.181000
     33 C27         10.1710    -0.4300    -0.4030 ca         1 E94      -0.031000
     34 C26         10.5990     0.3420     0.6610 ca         1 E94      -0.233000
     35 C25          9.6740     0.9970     1.4620 ca         1 E94       0.134000
     36 O           10.0970     1.7540     2.5080 oh         1 E94      -0.219000
     37 C24          8.3200     0.8770     1.1950 ca         1 E94      -0.141000
     38 H2           1.4460     1.8300    -2.1800 ha         1 E94       0.123000
     39 H3           2.5690    -1.9820    -1.2000 ha         1 E94       0.108000
     40 H4           3.9210    -2.1510    -2.8440 ha         1 E94       0.113000
     41 H5           4.2980    -0.0360    -4.4990 ha         1 E94       0.109000
     42 H6          -2.1710    -0.0650     2.4910 hn         1 E94       0.251000
     43 H7          -2.1140    -0.5180     3.8310 h1         1 E94       0.126000
     44 H8          -2.5300     1.0060     3.3250 h1         1 E94       0.126000
     45 H9          -4.3320    -0.8340     3.4400 DU         1 E94       0.188000
     46 H10         -3.9010     0.1320     1.8640 hx         1 E94       0.205000
     47 H20         -6.2570     0.6880     3.9830 hx         1 E94       0.033000
     48 H19         -5.8640    -0.0540     5.4700 DU         1 E94       0.134000
     49 H18         -7.2680    -0.6520     5.7270 ha         1 E94       0.119500
     50 H17         -6.1160    -1.4030     6.0310 ha         1 E94       0.119500
     51 H15         -6.4500     1.6260     6.0000 hc         1 E94       0.090500
     52 H16         -6.4660     0.8220     7.5140 hc         1 E94       0.090500
     53 H14         -4.0050     0.3820     7.1140 hc         1 E94       0.093000
     54 H13         -4.1490     2.1470     6.9440 hc         1 E94       0.093000
     55 H12         -4.1100     1.4290     6.0740 hx         1 E94       0.186000
     56 H11         -4.1410     2.2440     4.5440 hx         1 E94       0.186000
     57 H22          3.2580    -0.1320     3.8160 ha         1 E94       0.133000
     58 H21          5.3130    -0.2920     4.1980 h4         1 E94       0.125000
     59 H23          6.2380    -0.8700    -0.5880 hn         1 E94       0.071000
     60 H28          8.3690    -1.1440    -1.4580 ha         1 E94       0.109000
     61 H27         10.8740    -0.9040    -1.0770 ha         1 E94       0.099000
     62 H26         11.6670     0.5110     0.7240 ha         1 E94       0.111000
     63 H25         11.0330     1.6380     2.4970 ho         1 E94       0.196000
     64 H24          7.5440     1.5530     1.5360 ha         1 E94       0.136000
@<TRIPOS>BOND
     1     1     2 1   
     2     2     3 1   
     3     3     4 1   
     4     3    12 1   
     5     4     5 1   
     6     4    23 1   
     7     5     6 1   
     8     5     7 1   
     9     6    10 1   
    10     6    38 1   
    11     7     8 1   
    12     7    39 1   
    13     8     9 1   
    14     8    40 1   
    15     9    10 1   
    16     9    41 1   
    17    10    11 1   
    18    12    13 1   
    19    12    22 1   
    20    13    14 1   
    21    13    42 1   
    22    14    15 1   
    23    14    43 1   
    24    14    44 1   
    25    15    16 1   
    26    15    45 1   
    27    15    46 1   
    28    16    17 1   
    29    16    21 1   
    30    16    45 1   
    31    17    18 1   
    32    17    47 1   
    33    17    48 1   
    34    18    19 1   
    35    18    48 1   
    36    18    49 1   
    37    18    50 1   
    38    19    20 1   
    39    19    51 1   
    40    19    52 1   
    41    20    21 1   
    42    20    53 1   
    43    20    54 1   
    44    21    55 1   
    45    21    56 1   
    46    22    23 1   
    47    23    24 1   
    48    24    25 1   
    49    24    29 1   
    50    25    26 1   
    51    25    57 1   
    52    26    27 1   
    53    26    58 1   
    54    27    28 1   
    55    28    29 1   
    56    28    30 1   
    57    30    31 1   
    58    30    59 1   
    59    31    32 1   
    60    31    37 1   
    61    32    33 1   
    62    32    60 1   
    63    33    34 1   
    64    33    61 1   
    65    34    35 1   
    66    34    62 1   
    67    35    36 1   
    68    35    37 1   
    69    36    63 1   
    70    37    64 1   
@<TRIPOS>SUBSTRUCTURE
     1 E94         1 TEMP              0 ****  ****    0 ROOT
