@<TRIPOS>MOLECULE
E96
   50    55     1     0     0
SMALL
bcc


@<TRIPOS>ATOM
      1 OA         -0.0110   -0.0700   -0.1690 oh        1 E96     -0.493100
      2 C1A         1.3580   -0.0180   -0.0680 ca        1 E96      0.140100
      3 C2A         2.0220    0.1600    1.1540 ca        1 E96     -0.191000
      4 C3A         3.4130    0.1980    1.1770 ca        1 E96     -0.063250
      5 C4A         2.0790   -0.1520   -1.2670 ca        1 E96     -0.191000
      6 C5A         3.4680   -0.1120   -1.2290 ca        1 E96     -0.063250
      7 C6A         4.1430    0.0560   -0.0110 ca        1 E96     -0.153900
      8 C1B         5.6060    0.0990    0.0350 cc        1 E96      0.476400
      9 N2B         6.4040   -0.6390   -0.8750 na        1 E96     -0.281300
     10 N3B         6.3490    0.8140    0.9120 nd        1 E96     -0.563100
     11 C4B         7.6890    0.5390    0.5840 ca        1 E96      0.070400
     12 C5B         7.7340   -0.3810   -0.5410 ca        1 E96     -0.072200
     13 C6B         8.9470   -0.8250   -1.0770 ca        1 E96     -0.124000
     14 C7B         8.8930    0.9940    1.1410 ca        1 E96     -0.072000
     15 C8B        10.0830    0.5400    0.6000 ca        1 E96     -0.143000
     16 C9B        10.1230   -0.3570   -0.4930 cp        1 E96     -0.021000
     17 C9C        11.4180   -0.7980   -1.0150 cp        1 E96     -0.021000
     18 C8C        11.6180   -0.8630   -2.4140 ca        1 E96     -0.143000
     19 C7C        12.8170   -1.2720   -2.9710 ca        1 E96     -0.072000
     20 C6C        12.4360   -1.1510   -0.1300 ca        1 E96     -0.124000
     21 C5C        13.6530   -1.5700   -0.6750 ca        1 E96     -0.072200
     22 C4C        13.8640   -1.6360   -2.1110 ca        1 E96      0.070400
     23 N3C        15.1690   -2.0870   -2.3750 nc        1 E96     -0.563100
     24 N2C        14.8500   -1.9950   -0.0950 na        1 E96     -0.281300
     25 C1C        15.7360   -2.2900   -1.1610 cd        1 E96      0.476400
     26 C6D        17.1020   -2.7560   -0.9220 ca        1 E96     -0.153900
     27 C5D        18.1140   -2.4140   -1.8310 ca        1 E96     -0.063250
     28 C4D        19.4200   -2.8480   -1.6210 ca        1 E96     -0.191000
     29 C3D        17.4060   -3.5480    0.1950 ca        1 E96     -0.063250
     30 C2D        18.7060   -3.9870    0.4170 ca        1 E96     -0.191000
     31 C1D        19.7140   -3.6310   -0.4960 ca        1 E96      0.140100
     32 OD         20.9790   -4.0920   -0.2200 oh        1 E96     -0.493100
     33 HOA        -0.3830    0.0520    0.7180 ho        1 E96      0.423000
     34 H2A         1.4500    0.2720    2.0860 ha        1 E96      0.147500
     35 H3A         3.9400    0.3430    2.1340 ha        1 E96      0.147000
     36 H4A         1.5380   -0.2810   -2.2140 ha        1 E96      0.147500
     37 H5A         4.0280   -0.1960   -2.1730 ha        1 E96      0.147000
     38 H2B         6.0790   -1.2650   -1.5610 hn        1 E96      0.306700
     39 H6B         8.9740   -1.5260   -1.9230 ha        1 E96      0.141000
     40 H7B         8.8810    1.6960    1.9870 ha        1 E96      0.148000
     41 H8B        11.0370    0.8940    1.0230 ha        1 E96      0.136000
     42 H8C        10.7890   -0.5660   -3.0760 ha        1 E96      0.136000
     43 H7C        12.9550   -1.3130   -4.0610 ha        1 E96      0.148000
     44 H6C        12.2810   -1.1080    0.9570 ha        1 E96      0.141000
     45 H2C        15.0600   -2.0290    0.8660 hn        1 E96      0.306700
     46 H5D        17.8770   -1.8030   -2.7170 ha        1 E96      0.147000
     47 H4D        20.2130   -2.5800   -2.3340 ha        1 E96      0.147500
     48 H3D        16.6160   -3.8460    0.9010 ha        1 E96      0.147000
     49 H2D        18.9570   -4.6090    1.2870 ha        1 E96      0.147500
     50 HOD        21.5680   -3.7930   -0.9290 ho        1 E96      0.423000
@<TRIPOS>BOND
     1    1    2 1   
     2    1   33 1   
     3    2    3 ar  
     4    2    5 ar  
     5    3    4 ar  
     6    3   34 1   
     7    4    7 ar  
     8    4   35 1   
     9    5    6 ar  
    10    5   36 1   
    11    6    7 ar  
    12    6   37 1   
    13    7    8 1   
    14    8    9 1   
    15    8   10 2   
    16    9   12 1   
    17    9   38 1   
    18   10   11 1   
    19   11   12 ar  
    20   11   14 ar  
    21   12   13 ar  
    22   13   16 ar  
    23   13   39 1   
    24   14   15 ar  
    25   14   40 1   
    26   15   16 ar  
    27   15   41 1   
    28   16   17 1   
    29   17   18 ar  
    30   17   20 ar  
    31   18   19 ar  
    32   18   42 1   
    33   19   22 ar  
    34   19   43 1   
    35   20   21 ar  
    36   20   44 1   
    37   21   22 ar  
    38   21   24 1   
    39   22   23 1   
    40   23   25 2   
    41   24   25 1   
    42   24   45 1   
    43   25   26 1   
    44   26   27 ar  
    45   26   29 ar  
    46   27   28 ar  
    47   27   46 1   
    48   28   31 ar  
    49   28   47 1   
    50   29   30 ar  
    51   29   48 1   
    52   30   31 ar  
    53   30   49 1   
    54   31   32 1   
    55   32   50 1   
@<TRIPOS>SUBSTRUCTURE
     1 E96         1 TEMP              0 ****  ****    0 ROOT
