@<TRIPOS>MOLECULE
molecule
   50    55     1     0     0
SMALL
bcc


@<TRIPOS>ATOM
      1 OA           0.0000     0.0000     0.0000 oh         1 E96      -0.522100
      2 C1A          1.3580     0.0000     0.0000 ca         1 E96       0.119100
      3 C2A          2.0510     0.0000     1.2030 ca         1 E96      -0.156750
      4 C3A          3.4290    -0.0010     1.2070 ca         1 E96      -0.086000
      5 C4A          2.0500    -0.0080    -1.2050 ca         1 E96      -0.156750
      6 C5A          3.4280    -0.0040    -1.2100 ca         1 E96      -0.086000
      7 C6A          4.1290    -0.0030    -0.0020 ca         1 E96      -0.117400
      8 C1B          5.6060    -0.0050    -0.0030 cc         1 E96       0.473900
      9 N2B          6.3930    -0.7210    -0.8630 na         1 E96      -0.259800
     10 N3B          6.3610     0.6860     0.8180 nd         1 E96      -0.593100
     11 C4B          7.6670     0.4490     0.5440 ca         1 E96       0.094400
     12 C5B          7.7090    -0.4500    -0.5370 ca         1 E96      -0.091200
     13 C6B          8.9280    -0.8690    -1.0400 ca         1 E96      -0.118000
     14 C7B          8.8630     0.9150     1.1030 ca         1 E96      -0.071000
     15 C8B         10.0590     0.4970     0.6030 ca         1 E96      -0.134500
     16 C9B         10.1070    -0.3970    -0.4720 cp         1 E96      -0.021000
     17 C9C         11.4150    -0.8420    -1.0060 cp         1 E96      -0.021000
     18 C8C         11.5960    -0.9780    -2.3860 ca         1 E96      -0.134500
     19 C7C         12.7950    -1.3860    -2.8910 ca         1 E96      -0.071000
     20 C6C         12.4630    -1.1190    -0.1330 ca         1 E96      -0.118000
     21 C5C         13.6820    -1.5400    -0.6380 ca         1 E96      -0.091200
     22 C4C         13.8570    -1.6760    -2.0270 ca         1 E96       0.094400
     23 N3C         15.1310    -2.0910    -2.2300 nc         1 E96      -0.593100
     24 N2C         14.8870    -1.8920    -0.0610 na         1 E96      -0.259800
     25 C1C         15.7420    -2.2200    -1.0780 cd         1 E96       0.473900
     26 C6D         17.1440    -2.6560    -0.9040 ca         1 E96      -0.117400
     27 C5D         18.1310    -2.2050    -1.7800 ca         1 E96      -0.086000
     28 C4D         19.4370    -2.6140    -1.6140 ca         1 E96      -0.156750
     29 C3D         17.4840    -3.5170     0.1420 ca         1 E96      -0.086000
     30 C2D         18.7900    -3.9240     0.2990 ca         1 E96      -0.156750
     31 C1D         19.7700    -3.4730    -0.5760 ca         1 E96       0.119100
     32 OD          21.0580    -3.8730    -0.4150 oh         1 E96      -0.522100
     33 HOA         -0.3140     0.8890    -0.0020 ho         1 E96       0.424000
     34 H2A          1.5080     0.0020     2.1400 ha         1 E96       0.146000
     35 H3A          3.9690    -0.0000     2.1460 ha         1 E96       0.145000
     36 H4A          1.5060    -0.0080    -2.1410 ha         1 E96       0.146000
     37 H5A          3.9670    -0.0080    -2.1490 ha         1 E96       0.145000
     38 H2B          6.0780    -1.4240    -1.5010 hn         1 E96       0.305200
     39 H6B          8.9650    -1.5620    -1.8720 ha         1 E96       0.133500
     40 H7B          8.8370     1.6080     1.9360 ha         1 E96       0.144000
     41 H8B         10.9810     0.8610     1.0400 ha         1 E96       0.137500
     42 H8C         10.7780    -0.7520    -3.0600 ha         1 E96       0.137500
     43 H7C         12.9240    -1.4880    -3.9610 ha         1 E96       0.144000
     44 H6C         12.2910    -1.1190     0.9370 ha         1 E96       0.133500
     45 H2C         15.0970    -1.9030     0.9170 hn         1 E96       0.305200
     46 H5D         17.8720    -1.5340    -2.5900 ha         1 E96       0.145000
     47 H4D         20.2040    -2.2640    -2.2940 ha         1 E96       0.146000
     48 H3D         16.7200    -3.8690     0.8240 ha         1 E96       0.145000
     49 H2D         19.0540    -4.5930     1.1090 ha         1 E96       0.146000
     50 HOD         21.2050    -4.6640    -0.9070 ho         1 E96       0.424000
@<TRIPOS>BOND
     1     1     2 1
     2     1    33 1
     3     2     3 ar
     4     2     5 ar
     5     3     4 ar
     6     3    34 1
     7     4     7 ar
     8     4    35 1
     9     5     6 ar
    10     5    36 1
    11     6     7 ar
    12     6    37 1
    13     7     8 1
    14     8     9 1
    15     8    10 2
    16     9    12 1
    17     9    38 1
    18    10    11 1
    19    11    12 ar
    20    11    14 ar
    21    12    13 ar
    22    13    16 ar
    23    13    39 1
    24    14    15 ar
    25    14    40 1
    26    15    16 ar
    27    15    41 1
    28    16    17 1
    29    17    18 ar
    30    17    20 ar
    31    18    19 ar
    32    18    42 1
    33    19    22 ar
    34    19    43 1
    35    20    21 ar
    36    20    44 1
    37    21    22 ar
    38    21    24 1
    39    22    23 1
    40    23    25 2
    41    24    25 1
    42    24    45 1
    43    25    26 1
    44    26    27 ar
    45    26    29 ar
    46    27    28 ar
    47    27    46 1
    48    28    31 ar
    49    28    47 1
    50    29    30 ar
    51    29    48 1
    52    30    31 ar
    53    30    49 1
    54    31    32 1
    55    32    50 1
@<TRIPOS>SUBSTRUCTURE
     1 E96         1 TEMP              0 ****  ****    0 ROOT
