@<TRIPOS>MOLECULE
molecule
   84    89     1     0     0
SMALL
bcc


@<TRIPOS>ATOM
      1 C1           0.0000     0.0000     0.0000 ca         1 E97      -0.071000
      2 C2           1.3990     0.0000     0.0000 ca         1 E97       0.094400
      3 C3          -0.6830    -0.0000     1.1800 ca         1 E97      -0.134000
      4 C4           0.0020    -0.0010     2.3980 cp         1 E97      -0.018000
      5 C5           1.3920     0.0060     2.4170 ca         1 E97      -0.123000
      6 C6           2.0950     0.0000     1.2240 ca         1 E97      -0.091200
      7 C7          -0.7550    -0.0000     3.6730 cp         1 E97      -0.055000
      8 C8          -0.3100    -0.7750     4.7480 ca         1 E97      -0.103000
      9 C9          -1.0050    -0.7820     5.9350 ca         1 E97      -0.131000
     10 C10         -2.1560    -0.0170     6.0710 ca         1 E97      -0.090200
     11 C11         -1.9030     0.7700     3.7950 ca         1 E97      -0.058000
     12 C12         -2.6130     0.7660     4.9970 ca         1 E97       0.094400
     13 N13         -3.0520     0.1840     7.1030 na         1 E97      -0.264300
     14 C14         -4.0050     1.0560     6.6490 cc         1 E97       0.481400
     15 N15         -3.7450     1.3910     5.4100 nd         1 E97      -0.594100
     16 N16          2.3280    -0.0010    -0.9870 nc         1 E97      -0.594100
     17 C17          3.5290    -0.0000    -0.4630 cd         1 E97       0.479400
     18 N18          3.4390    -0.0010     0.9040 na         1 E97      -0.263300
     19 C19         -5.1560     1.5430     7.4380 ca         1 E97      -0.146900
     20 C20         -5.5580     2.8770     7.3390 ca         1 E97      -0.062000
     21 C21         -6.6320     3.3270     8.0750 ca         1 E97      -0.196000
     22 C22         -7.3140     2.4570     8.9160 ca         1 E97       0.137100
     23 C23         -5.8430     0.6730     8.2840 ca         1 E97      -0.062000
     24 C24         -6.9140     1.1320     9.0220 ca         1 E97      -0.196000
     25 C25          4.7910    -0.0010    -1.2310 ca         1 E97      -0.145900
     26 C26          4.9080     0.7740    -2.3860 ca         1 E97      -0.062500
     27 C27          6.0870     0.7710    -3.1000 ca         1 E97      -0.196000
     28 C28          7.1580    -0.0030    -2.6730 ca         1 E97       0.136100
     29 C29          7.0450    -0.7760    -1.5240 ca         1 E97      -0.196000
     30 C30          5.8720    -0.7730    -0.8020 ca         1 E97      -0.062500
     31 O31          8.3180    -0.0040    -3.3780 os         1 E97      -0.291900
     32 C32          9.2150    -0.8820    -2.6990 c3         1 E97       0.113400
     33 C33         10.5490    -0.9280    -3.4460 c3         1 E97      -0.087400
     34 C34         11.5100    -1.8700    -2.7180 c3         1 E97       0.135800
     35 N35         12.7900    -1.9140    -3.4360 n3         1 E97      -0.668600
     36 O36         -8.3720     2.9050     9.6410 os         1 E97      -0.291900
     37 C37         -8.8550     1.7920    10.3960 c3         1 E97       0.112400
     38 C38        -10.0550     2.2320    11.2390 c3         1 E97      -0.087400
     39 C39        -10.5720     1.0420    12.0480 c3         1 E97       0.136800
     40 N40        -11.7220     1.4630    12.8580 n3         1 E97      -0.668600
     41 C41        -12.1690     0.2800    13.6060 c3         1 E97       0.121600
     42 C42        -11.2140     2.4210    13.8480 c3         1 E97       0.121600
     43 C43         13.6620    -2.8310    -2.6880 c3         1 E97       0.121100
     44 C44         12.5250    -2.5480    -4.7330 c3         1 E97       0.121100
     45 H1          -0.5410     0.0000    -0.9390 ha         1 E97       0.144000
     46 H3          -1.7670    -0.0060     1.1730 ha         1 E97       0.141000
     47 H5           1.9240     0.0060     3.3620 ha         1 E97       0.130000
     48 H8           0.5840    -1.3780     4.6430 ha         1 E97       0.136000
     49 H9          -0.6540    -1.3850     6.7640 ha         1 E97       0.126000
     50 H11         -2.1830     1.4540     3.0030 ha         1 E97       0.150000
     51 H13         -3.0100    -0.2280     8.0150 hn         1 E97       0.303700
     52 H18          4.2040    -0.0010     1.5490 hn         1 E97       0.303700
     53 H20         -5.0260     3.5560     6.6830 ha         1 E97       0.143500
     54 H21         -6.9460     4.3610     7.9970 ha         1 E97       0.148000
     55 H23         -5.5310    -0.3610     8.3670 ha         1 E97       0.143500
     56 H24         -7.4480     0.4560     9.6790 ha         1 E97       0.148000
     57 H26          4.0740     1.3790    -2.7210 ha         1 E97       0.143500
     58 H27          6.1780     1.3730    -3.9960 ha         1 E97       0.148000
     59 H29          7.8830    -1.3770    -1.1920 ha         1 E97       0.148000
     60 H30          5.7850    -1.3760     0.0940 ha         1 E97       0.143500
     61 H321         9.3780    -0.5220    -1.6900 h1         1 E97       0.041700
     62 H322         8.7870    -1.8770    -2.6620 h1         1 E97       0.041700
     63 H331        10.9770     0.0660    -3.4840 hc         1 E97       0.065200
     64 H332        10.3850    -1.2890    -4.4550 hc         1 E97       0.065200
     65 H341        11.6740    -1.5090    -1.7090 h1         1 E97       0.036200
     66 H342        11.0820    -2.8650    -2.6800 h1         1 E97       0.036200
     67 H371        -9.1590     1.0020     9.7200 h1         1 E97       0.042200
     68 H372        -8.0690     1.4290    11.0470 h1         1 E97       0.042200
     69 H381       -10.8410     2.5950    10.5880 hc         1 E97       0.065200
     70 H382        -9.7510     3.0230    11.9140 hc         1 E97       0.065200
     71 H391       -10.8750     0.2510    11.3740 h1         1 E97       0.035700
     72 H392        -9.7860     0.6800    12.7000 h1         1 E97       0.035700
     73 H411       -13.0120     0.5450    14.2320 h1         1 E97       0.036033
     74 H412       -11.3580    -0.0820    14.2270 h1         1 E97       0.036033
     75 H413       -12.4650    -0.4970    12.9110 h1         1 E97       0.036033
     76 H421       -10.2460     2.0910    14.2060 h1         1 E97       0.036033
     77 H422       -11.9050     2.4820    14.6800 h1         1 E97       0.036033
     78 H423       -11.1160     3.3970    13.3880 h1         1 E97       0.036033
     79 H431        13.8090    -2.4510    -1.6840 h1         1 E97       0.036200
     80 H432        14.6200    -2.9070    -3.1890 h1         1 E97       0.036200
     81 H433        13.2010    -3.8100    -2.6400 h1         1 E97       0.036200
     82 H441        12.1110    -1.8150    -5.4150 h1         1 E97       0.036200
     83 H442        11.8180    -3.3590    -4.6020 h1         1 E97       0.036200
     84 H443        13.4500    -2.9380    -5.1400 h1         1 E97       0.036200
@<TRIPOS>BOND
     1     1     2 ar
     2     1     3 ar
     3     1    45 1
     4     2     6 ar
     5     2    16 1
     6     3     4 ar
     7     3    46 1
     8     4     5 ar
     9     4     7 1
    10     5     6 ar
    11     5    47 1
    12     6    18 1
    13     7     8 ar
    14     7    11 ar
    15     8     9 ar
    16     8    48 1
    17     9    10 ar
    18     9    49 1
    19    10    12 ar
    20    10    13 1
    21    11    12 ar
    22    11    50 1
    23    12    15 1
    24    13    14 1
    25    13    51 1
    26    14    15 2
    27    14    19 1
    28    16    17 2
    29    17    18 1
    30    17    25 1
    31    18    52 1
    32    19    20 ar
    33    19    23 ar
    34    20    21 ar
    35    20    53 1
    36    21    22 ar
    37    21    54 1
    38    22    24 ar
    39    22    36 1
    40    23    24 ar
    41    23    55 1
    42    24    56 1
    43    25    26 ar
    44    25    30 ar
    45    26    27 ar
    46    26    57 1
    47    27    28 ar
    48    27    58 1
    49    28    29 ar
    50    28    31 1
    51    29    30 ar
    52    29    59 1
    53    30    60 1
    54    31    32 1
    55    32    33 1
    56    32    61 1
    57    32    62 1
    58    33    34 1
    59    33    63 1
    60    33    64 1
    61    34    35 1
    62    34    65 1
    63    34    66 1
    64    35    43 1
    65    35    44 1
    66    36    37 1
    67    37    38 1
    68    37    67 1
    69    37    68 1
    70    38    39 1
    71    38    69 1
    72    38    70 1
    73    39    40 1
    74    39    71 1
    75    39    72 1
    76    40    41 1
    77    40    42 1
    78    41    73 1
    79    41    74 1
    80    41    75 1
    81    42    76 1
    82    42    77 1
    83    42    78 1
    84    43    79 1
    85    43    80 1
    86    43    81 1
    87    44    82 1
    88    44    83 1
    89    44    84 1
@<TRIPOS>SUBSTRUCTURE
     1 E97         1 TEMP              0 ****  ****    0 ROOT
