@<TRIPOS>MOLECULE
molecule
   31    33     1     0     0
SMALL
bcc


@<TRIPOS>ATOM
      1 OAB          0.0000     0.0000     0.0000 o          1 E98      -0.554100
      2 CAS          1.2180     0.0000     0.0000 c          1 E98       0.603900
      3 CAU          2.0060     0.0000     1.2500 ca         1 E98      -0.220600
      4 CAJ          1.4120     0.2620     2.4830 ca         1 E98      -0.041000
      5 CAE          2.1840     0.2580     3.6240 ca         1 E98      -0.155000
      6 CAD          3.5440    -0.0050     3.5440 ca         1 E98      -0.073000
      7 CAI          4.1420    -0.2680     2.3300 ca         1 E98      -0.147000
      8 CAT          3.3810    -0.2710     1.1650 ca         1 E98       0.140100
      9 OAN          3.9560    -0.5400    -0.0230 os         1 E98      -0.197200
     10 CAK          3.3410    -0.2660    -1.1690 cc         1 E98       0.173100
     11 CAR          2.0040    -0.0050    -1.2530 cd         1 E98      -0.380400
     12 CAO          1.3650     0.2680    -2.5510 c          1 E98       0.704300
     13 OAA          2.0300     0.2580    -3.5690 o          1 E98      -0.620100
     14 NAM          0.0440     0.5270    -2.6100 ns         1 E98      -0.469100
     15 CAQ         -0.5450     0.8800    -3.8290 ca         1 E98       0.083600
     16 CAL         -1.5840     1.8010    -3.8580 ca         1 E98      -0.200000
     17 CAP         -2.1630     2.1490    -5.0640 ca         1 E98       0.146900
     18 FAC         -3.1730     3.0460    -5.0950 f          1 E98      -0.142900
     19 CAG         -1.7090     1.5780    -6.2420 ca         1 E98      -0.185000
     20 CAF         -0.6760     0.6600    -6.2140 ca         1 E98      -0.091000
     21 CAH         -0.0890     0.3140    -5.0120 ca         1 E98      -0.146000
     22 H1           0.3500     0.4670     2.5440 ha         1 E98       0.160000
     23 H2           1.7290     0.4630     4.5860 ha         1 E98       0.144000
     24 H3           4.1430    -0.0060     4.4460 ha         1 E98       0.143000
     25 H4           5.2050    -0.4710     2.2840 ha         1 E98       0.152000
     26 H5           3.9240    -0.2710    -2.0820 h4         1 E98       0.215000
     27 H6          -0.5210     0.4330    -1.7890 hn         1 E98       0.361500
     28 H7          -1.9020     2.2890    -2.9440 ha         1 E98       0.148000
     29 H8          -2.1650     1.8500    -7.1860 ha         1 E98       0.143000
     30 H9          -0.3210     0.2170    -7.1360 ha         1 E98       0.138000
     31 H10          0.7210    -0.4050    -4.9920 ha         1 E98       0.167000
@<TRIPOS>BOND
     1     5     6 ar
     2     5     4 ar
     3     6     7 ar
     4     4     3 ar
     5     7     8 ar
     6     3     8 ar
     7     3     2 1
     8     8     9 1
     9     1     2 2
    10     2    11 1
    11     9    10 1
    12    10    11 2
    13    11    12 1
    14    12    14 1
    15    12    13 2
    16    14    15 1
    17    15    21 ar
    18    15    16 ar
    19    21    20 ar
    20    16    17 ar
    21    20    19 ar
    22    17    19 ar
    23    17    18 1
    24     4    22 1
    25     5    23 1
    26     6    24 1
    27     7    25 1
    28    10    26 1
    29    14    27 1
    30    16    28 1
    31    19    29 1
    32    20    30 1
    33    21    31 1
@<TRIPOS>SUBSTRUCTURE
     1 E98         1 TEMP              0 ****  ****    0 ROOT
