@<TRIPOS>MOLECULE
E98
   31    33     1     0     0
SMALL
bcc


@<TRIPOS>ATOM
      1 OAB          0.0000     0.0000     0.0000 o          1 E98      -0.591100
      2 CAS          1.2180     0.0000     0.0000 c          1 E98       0.677900
      3 CAU          2.0060     0.0000     1.2500 ca         1 E98      -0.242600
      4 CAJ          1.4120     0.2620     2.4830 ca         1 E98      -0.001000
      5 CAE          2.1840     0.2580     3.6240 ca         1 E98      -0.136000
      6 CAD          3.5440    -0.0050     3.5440 ca         1 E98      -0.037000
      7 CAI          4.1420    -0.2680     2.3300 ca         1 E98      -0.134000
      8 CAT          3.3810    -0.2710     1.1650 ca         1 E98       0.150100
      9 OAN          3.9560    -0.5400    -0.0230 os         1 E98      -0.172200
     10 CAK          3.3410    -0.2660    -1.1690 cc         1 E98       0.220100
     11 CAR          2.0040    -0.0050    -1.2530 cd         1 E98      -0.419400
     12 CAO          1.3650     0.2680    -2.5510 c          1 E98       0.623300
     13 OAA          2.0300     0.2580    -3.5690 o          1 E98      -0.667100
     14 NAM          0.0440     0.5270    -2.6100 ns         1 E98      -0.048100
     15 CAQ         -0.5450     0.8800    -3.8290 ca         1 E98      -0.057400
     16 CAL         -1.5840     1.8010    -3.8580 ca         1 E98      -0.166000
     17 CAP         -2.1630     2.1490    -5.0640 ca         1 E98       0.118900
     18 FAC         -3.1730     3.0460    -5.0950 f          1 E98      -0.130900
     19 CAG         -1.7090     1.5780    -6.2420 ca         1 E98      -0.150000
     20 CAF         -0.6760     0.6600    -6.2140 ca         1 E98      -0.058000
     21 CAH         -0.0890     0.3140    -5.0120 ca         1 E98      -0.122000
     22 H1           0.3500     0.4670     2.5440 ha         1 E98       0.125000
     23 H2           1.7290     0.4630     4.5860 ha         1 E98       0.114000
     24 H3           4.1430    -0.0060     4.4460 ha         1 E98       0.107000
     25 H4           5.2050    -0.4710     2.2840 ha         1 E98       0.122000
     26 H5           3.9240    -0.2710    -2.0820 h4         1 E98       0.163000
     27 H6          -0.5210     0.4330    -1.7890 hn         1 E98       0.218500
     28 H7          -1.9020     2.2890    -2.9440 ha         1 E98       0.123000
     29 H8          -2.1650     1.8500    -7.1860 ha         1 E98       0.117000
     30 H9          -0.3210     0.2170    -7.1360 ha         1 E98       0.106000
     31 H10          0.7210    -0.4050    -4.9920 ha         1 E98       0.148000
@<TRIPOS>BOND
     1     1     2 2   
     2     2     3 1   
     3     2    11 1   
     4     3     4 ar  
     5     3     8 ar  
     6     4     5 ar  
     7     4    22 1   
     8     5     6 ar  
     9     5    23 1   
    10     6     7 ar  
    11     6    24 1   
    12     7     8 ar  
    13     7    25 1   
    14     8     9 1   
    15     9    10 1   
    16    10    11 2   
    17    10    26 1   
    18    11    12 1   
    19    12    13 2   
    20    12    14 1   
    21    14    15 1   
    22    14    27 1   
    23    15    16 ar  
    24    15    21 ar  
    25    16    17 ar  
    26    16    28 1   
    27    17    18 1   
    28    17    19 ar  
    29    19    20 ar  
    30    19    29 1   
    31    20    21 ar  
    32    20    30 1   
    33    21    31 1   
@<TRIPOS>SUBSTRUCTURE
     1 E98         1 TEMP              0 ****  ****    0 ROOT
