@<TRIPOS>MOLECULE
E9G
   25    25     1     0     0
SMALL
bcc


@<TRIPOS>ATOM
      1 C10          0.0000     0.0000     0.0000 ca         1 E9G      -0.114000
      2 C11          1.3810     0.0000     0.0000 ca         1 E9G      -0.117000
      3 C12          2.0730     0.0000     1.1970 ca         1 E9G      -0.114000
      4 C13          1.3820    -0.0010     2.3940 ca         1 E9G      -0.081500
      5 O14         -2.4750    -1.9420     4.4180 o          1 E9G      -0.655100
      6 C02         -0.9260    -3.3840     5.4360 c          1 E9G       0.917600
      7 C03         -1.3200    -2.1200     4.7430 c          1 E9G       0.491100
      8 C06         -0.7530     0.0080     3.6990 c3         1 E9G       0.062000
      9 C07         -0.3910     1.2670     4.4910 c3         1 E9G      -0.015100
     10 C08         -0.0000     0.0000     2.3940 ca         1 E9G      -0.085300
     11 C09         -0.6920     0.0070     1.1970 ca         1 E9G      -0.081500
     12 N04         -0.3920    -1.1790     4.4780 n          1 E9G      -0.039300
     13 O01          0.2290    -3.5620     5.7610 o          1 E9G      -0.857800
     14 O05          0.9330    -1.3380     4.9540 oh         1 E9G      -0.427100
     15 O15         -1.8520    -4.3240     5.6990 o          1 E9G      -0.857800
     16 H1          -0.5420     0.0030    -0.9380 ha         1 E9G       0.092500
     17 H2           1.9230    -0.0020    -0.9380 ha         1 E9G       0.089000
     18 H3           3.1560    -0.0000     1.1970 ha         1 E9G       0.092500
     19 H4           1.9240    -0.0010     3.3320 ha         1 E9G       0.115500
     20 H5          -1.8180    -0.0010     3.5010 h1         1 E9G       0.072700
     21 H6          -0.2350     2.0910     3.8060 hc         1 E9G       0.003700
     22 H7          -1.1980     1.5100     5.1710 hc         1 E9G       0.003700
     23 H8           0.5160     1.0900     5.0550 hc         1 E9G       0.003700
     24 H9          -1.7750     0.0070     1.1970 ha         1 E9G       0.115500
     25 H10          0.9710    -1.0920     5.8640 ho         1 E9G       0.386000
@<TRIPOS>BOND
     1     1     2 ar  
     2     1    11 ar  
     3     1    16 1   
     4     2     3 ar  
     5     2    17 1   
     6     3     4 ar  
     7     3    18 1   
     8     4    10 ar  
     9     4    19 1   
    10     5     7 2   
    11     6     7 1   
    12     6    13 1   
    13     6    15 1   
    14     7    12 1   
    15     8     9 1   
    16     8    10 1   
    17     8    12 1   
    18     8    20 1   
    19     9    21 1   
    20     9    22 1   
    21     9    23 1   
    22    10    11 ar  
    23    11    24 1   
    24    12    14 1   
    25    14    25 1   
@<TRIPOS>SUBSTRUCTURE
     1 E9G         1 TEMP              0 ****  ****    0 ROOT
