@<TRIPOS>MOLECULE
molecule
   54    53     1     0     0
SMALL
bcc


@<TRIPOS>ATOM
      1 O1           0.0000     0.0000     0.0000 o          1 E9H      -0.913500
      2 C1           3.5320     1.5550    -1.0160 c3         1 E9H       0.224400
      3 C2           3.6910     2.8880    -1.7480 c3         1 E9H      -0.094400
      4 O2           2.1470     1.3160    -0.7580 os         1 E9H      -0.581200
      5 C3           5.1740     3.1450    -2.0250 c3         1 E9H      -0.084400
      6 C4           5.3330     4.4780    -2.7570 c3         1 E9H      -0.081400
      7 P1           1.6100     0.0000     0.0000 p5         1 E9H       1.186900
      8 O3           2.1460     0.0000     1.5170 o          1 E9H      -0.913500
      9 O4           2.1040    -1.2070    -0.6980 o          1 E9H      -0.913500
     10 H2           3.9280     0.7560    -1.6310 h1         1 E9H       0.006700
     11 H4           3.2950     3.6870    -1.1330 hc         1 E9H       0.033200
     12 H6           5.7150     3.1800    -1.0880 hc         1 E9H       0.033700
     13 H8           4.7920     4.4420    -3.6950 hc         1 E9H       0.034700
     14 C5           6.8160     4.7340    -3.0330 c3         1 E9H      -0.083400
     15 C6           6.9760     6.0680    -3.7660 c3         1 E9H      -0.083400
     16 C7           8.4580     6.3240    -4.0420 c3         1 E9H      -0.082400
     17 C8           8.6180     7.6580    -4.7760 c3         1 E9H      -0.082400
     18 C9          10.1010     7.9140    -5.0520 c3         1 E9H      -0.082400
     19 C10         10.2600     9.2470    -5.7850 c3         1 E9H      -0.082400
     20 C11         11.7440     9.5030    -6.0610 c3         1 E9H      -0.082400
     21 C12         11.9030    10.8360    -6.7930 c3         1 E9H      -0.082400
     22 C13         13.3860    11.0930    -7.0700 c3         1 E9H      -0.082400
     23 C14         13.5450    12.4270    -7.8020 c3         1 E9H      -0.081400
     24 C15         15.0280    12.6820    -8.0780 c3         1 E9H      -0.084400
     25 C16         15.1870    14.0160    -8.8110 c3         1 E9H      -0.092100
     26 H5           4.0730     1.5910    -0.0790 h1         1 E9H       0.006700
     27 H7           3.1490     2.8530    -2.6860 hc         1 E9H       0.033200
     28 H3           5.5690     2.3450    -2.6410 hc         1 E9H       0.033700
     29 H9           4.9370     5.2770    -2.1420 hc         1 E9H       0.034700
     30 H11          7.3570     4.7710    -2.0950 hc         1 E9H       0.037200
     31 H12          7.2120     3.9350    -3.6480 hc         1 E9H       0.037200
     32 H13          6.4350     6.0310    -4.7040 hc         1 E9H       0.037700
     33 H14          6.5800     6.8670    -3.1520 hc         1 E9H       0.037700
     34 H15          8.8550     5.5240    -4.6570 hc         1 E9H       0.038700
     35 H16          8.9990     6.3600    -3.1040 hc         1 E9H       0.038700
     36 H17          8.0770     7.6210    -5.7140 hc         1 E9H       0.038700
     37 H18          8.2210     8.4570    -4.1610 hc         1 E9H       0.038700
     38 H19         10.4980     7.1140    -5.6660 hc         1 E9H       0.039700
     39 H20         10.6420     7.9510    -4.1140 hc         1 E9H       0.039700
     40 H21          9.8640    10.0460    -5.1700 hc         1 E9H       0.039700
     41 H22          9.7190     9.2100    -6.7220 hc         1 E9H       0.039700
     42 H23         12.1400     8.7040    -6.6750 hc         1 E9H       0.039700
     43 H24         12.2840     9.5400    -5.1230 hc         1 E9H       0.039700
     44 H25         11.3620    10.7990    -7.7310 hc         1 E9H       0.039700
     45 H26         11.5070    11.6350    -6.1790 hc         1 E9H       0.039700
     46 H27         13.9270    11.1290    -6.1320 hc         1 E9H       0.040200
     47 H28         13.7820    10.2940    -7.6840 hc         1 E9H       0.040200
     48 H29         13.1500    13.2260    -7.1870 hc         1 E9H       0.040700
     49 H30         13.0040    12.3910    -8.7400 hc         1 E9H       0.040700
     50 H31         15.5690    12.7180    -7.1410 hc         1 E9H       0.039700
     51 H32         15.4230    11.8830    -8.6940 hc         1 E9H       0.039700
     52 H33         14.6460    13.9810    -9.7490 hc         1 E9H       0.030367
     53 H34         16.2370    14.1980    -9.0070 hc         1 E9H       0.030367
     54 H35         14.7920    14.8150    -8.1960 hc         1 E9H       0.030367
@<TRIPOS>BOND
     1     9     7 1
     2     5     6 1
     3     5     3 1
     4     2     3 1
     5     2     4 1
     6     1     7 1
     7     7     4 1
     8     7     8 1
     9     2    10 1
    10     3    11 1
    11     5    12 1
    12     6    13 1
    13     6    14 1
    14    14    15 1
    15    15    16 1
    16    18    19 1
    17    19    20 1
    18    20    21 1
    19    21    22 1
    20    22    23 1
    21    23    24 1
    22    24    25 1
    23    16    17 1
    24    17    18 1
    25     2    26 1
    26     3    27 1
    27     5    28 1
    28     6    29 1
    29    14    30 1
    30    14    31 1
    31    15    32 1
    32    15    33 1
    33    16    34 1
    34    16    35 1
    35    17    36 1
    36    17    37 1
    37    18    38 1
    38    18    39 1
    39    19    40 1
    40    19    41 1
    41    20    42 1
    42    20    43 1
    43    21    44 1
    44    21    45 1
    45    22    46 1
    46    22    47 1
    47    23    48 1
    48    23    49 1
    49    24    50 1
    50    24    51 1
    51    25    52 1
    52    25    53 1
    53    25    54 1
@<TRIPOS>SUBSTRUCTURE
     1 E9H         1 TEMP              0 ****  ****    0 ROOT
