@<TRIPOS>MOLECULE
E9J
   24    24     1     0     0
SMALL
bcc


@<TRIPOS>ATOM
      1 C02          0.0000     0.0000     0.0000 c          1 E9J       0.921600
      2 C03          1.4950     0.0000     0.0000 c          1 E9J       0.485100
      3 C05          3.6340     0.0010     1.1670 c3         1 E9J       0.069000
      4 C06          4.1430     1.4370     1.0400 c3         1 E9J      -0.014100
      5 C07          4.1360    -0.6000     2.4550 ca         1 E9J      -0.079300
      6 C08          5.2310    -1.4420     2.4430 ca         1 E9J      -0.095000
      7 C09          5.6930    -1.9930     3.6240 ca         1 E9J      -0.107000
      8 C10          5.0590    -1.7000     4.8170 ca         1 E9J      -0.120000
      9 C11          3.9630    -0.8560     4.8290 ca         1 E9J      -0.107000
     10 C12          3.5050    -0.3020     3.6480 ca         1 E9J      -0.095000
     11 N04          2.1680     0.0000     1.1670 ns         1 E9J      -0.236900
     12 O01         -0.6060     0.0050     1.0500 o          1 E9J      -0.868300
     13 O13          2.1010    -0.0010    -1.0510 o          1 E9J      -0.664100
     14 O14         -0.6730    -0.0010    -1.1650 o          1 E9J      -0.868300
     15 H1           3.9950    -0.5850     0.3300 h1         1 E9J       0.051700
     16 H2           4.2830     1.6800    -0.0060 hc         1 E9J       0.006033
     17 H3           3.4200     2.1170     1.4750 hc         1 E9J       0.006033
     18 H4           5.0880     1.5330     1.5630 hc         1 E9J       0.006033
     19 H5           5.7280    -1.6720     1.5080 ha         1 E9J       0.113000
     20 H6           6.5510    -2.6540     3.6150 ha         1 E9J       0.094500
     21 H7           5.4190    -2.1320     5.7430 ha         1 E9J       0.092000
     22 H8           3.4680    -0.6240     5.7640 ha         1 E9J       0.094500
     23 H9           2.6470     0.3590     3.6570 ha         1 E9J       0.113000
     24 H10          1.6680    -0.0140     2.0340 hn         1 E9J       0.199500
@<TRIPOS>BOND
     1     1     2 1   
     2     1    12 1   
     3     1    14 1   
     4     2    11 1   
     5     2    13 2   
     6     3     4 1   
     7     3     5 1   
     8     3    11 1   
     9     3    15 1   
    10     4    16 1   
    11     4    17 1   
    12     4    18 1   
    13     5     6 ar  
    14     5    10 ar  
    15     6     7 ar  
    16     6    19 1   
    17     7     8 ar  
    18     7    20 1   
    19     8     9 ar  
    20     8    21 1   
    21     9    10 ar  
    22     9    22 1   
    23    10    23 1   
    24    11    24 1   
@<TRIPOS>SUBSTRUCTURE
     1 E9J         1 TEMP              0 ****  ****    0 ROOT
