@<TRIPOS>MOLECULE
E9L
   34    36     1     0     0
SMALL
bcc


@<TRIPOS>ATOM
      1 C01          0.0000     0.0000     0.0000 c3         1 E9L       0.051200
      2 C02          1.5070     0.0000     0.0000 ca         1 E9L      -0.026300
      3 C03          2.1960     0.0000     1.2000 ca         1 E9L      -0.102500
      4 C04          3.5760    -0.0010     1.2070 ca         1 E9L      -0.046500
      5 C05          4.2760     0.0000     0.0010 ca         1 E9L      -0.211900
      6 C06          3.5760     0.0010    -1.2060 ca         1 E9L      -0.046500
      7 C07          2.1960    -0.0040    -1.1990 ca         1 E9L      -0.102500
      8 C08          5.7570     0.0000     0.0010 cc         1 E9L       0.524200
      9 C09          6.4350     0.0000    -1.2290 cc         1 E9L      -0.059600
     10 C10          7.7930     0.0000    -1.2560 cd         1 E9L      -0.374000
     11 C11          8.4980    -0.0000    -0.0300 cd         1 E9L      -0.136600
     12 C12          9.8900    -0.0010    -0.0390 cc         1 E9L      -0.022000
     13 C13         10.5750     0.0010    -1.2690 cc         1 E9L       0.065000
     14 C14          9.9030     0.0000    -2.4310 cd         1 E9L      -0.451000
     15 N15          8.5050    -0.0000    -2.4550 nx         1 E9L       0.599000
     16 C16          8.0790     1.1810    -3.2190 c3         1 E9L      -0.030900
     17 C17          7.7310    -0.0010     1.2220 c          1 E9L       0.686100
     18 O18          8.3020    -0.0000     2.3020 o          1 E9L      -0.457100
     19 N19          6.3950     0.0050     1.1590 nd         1 E9L      -0.473100
     20 H01         -0.3610    -0.9630    -0.3400 hc         1 E9L       0.020700
     21 H01A        -0.3610     0.7760    -0.6640 hc         1 E9L       0.020700
     22 H01B        -0.3610     0.1870     1.0040 hc         1 E9L       0.020700
     23 H03          1.6510    -0.0010     2.1360 ha         1 E9L       0.122500
     24 H04          4.1130    -0.0010     2.1470 ha         1 E9L       0.110000
     25 H06          4.1150    -0.0010    -2.1460 ha         1 E9L       0.110000
     26 H07          1.6510    -0.0040    -2.1360 ha         1 E9L       0.122500
     27 H09          5.8750    -0.0490    -2.1550 ha         1 E9L       0.137000
     28 H12         10.4380    -0.1370     0.8860 ha         1 E9L       0.165000
     29 H13         11.6580     0.0030    -1.2780 ha         1 E9L       0.146000
     30 H14         10.4530    -0.0010    -3.3640 hx         1 E9L       0.190000
     31 H15          8.2200    -0.8120    -2.9660 hn         1 E9L       0.224800
     32 H16          7.1370     0.9730    -3.7110 hx         1 E9L       0.075700
     33 H16A         7.9570     2.0220    -2.5460 hx         1 E9L       0.075700
     34 H16B         8.8300     1.4200    -3.9620 hx         1 E9L       0.075700
@<TRIPOS>BOND
     1     1     2 1   
     2     1    20 1   
     3     1    21 1   
     4     1    22 1   
     5     2     3 ar  
     6     2     7 ar  
     7     3     4 ar  
     8     3    23 1   
     9     4     5 ar  
    10     4    24 1   
    11     5     6 ar  
    12     5     8 1   
    13     6     7 ar  
    14     6    25 1   
    15     7    26 1   
    16     8     9 1   
    17     8    19 2   
    18     9    10 2   
    19     9    27 1   
    20    10    11 1   
    21    10    15 1   
    22    11    12 2   
    23    11    17 1   
    24    12    13 1   
    25    12    28 1   
    26    13    14 2   
    27    13    29 1   
    28    14    15 1   
    29    14    30 1   
    30    15    16 1   
    31    15    31 1   
    32    16    32 1   
    33    16    33 1   
    34    16    34 1   
    35    17    18 2   
    36    17    19 1   
@<TRIPOS>SUBSTRUCTURE
     1 E9L         1 TEMP              0 ****  ****    0 ROOT
