@<TRIPOS>MOLECULE
molecule
   26    26     1     0     0
SMALL
bcc


@<TRIPOS>ATOM
      1 CAJ          0.0000     0.0000     0.0000 c          1 E9N       0.883600
      2 OAL          1.3430     0.0000     0.0000 o          1 E9N      -0.875800
      3 CAK         -0.7530     0.0000     1.3060 c3         1 E9N      -0.147400
      4 CAM         -2.2580     0.0070     1.0270 c3         1 E9N      -0.028600
      5 CAN         -3.0090     0.1310     2.3270 c          1 E9N       0.887600
      6 OAP         -3.8770     0.9630     2.4460 o          1 E9N      -0.867300
      7 OAO         -2.7150    -0.6830     3.3530 o          1 E9N      -0.867300
      8 SAQ         -2.7270    -1.5390     0.2020 ss         1 E9N      -0.313200
      9 CAR         -4.4820    -1.2830    -0.1780 c3         1 E9N       0.032000
     10 CAW         -5.0270    -2.5010    -0.8770 ca         1 E9N      -0.019300
     11 CAV         -5.5760    -3.5330    -0.1410 ca         1 E9N      -0.118000
     12 CAU         -6.0770    -4.6510    -0.7820 ca         1 E9N      -0.144500
     13 CAT         -6.0280    -4.7360    -2.1610 ca         1 E9N      -0.165000
     14 CAS         -5.4800    -3.7030    -2.8980 ca         1 E9N      -0.144500
     15 CAX         -4.9850    -2.5830    -2.2570 ca         1 E9N      -0.118000
     16 H2          -0.4880     0.8820     1.8760 hc         1 E9N       0.049700
     17 H3          -2.5030     0.8460     0.3870 h1         1 E9N       0.058700
     18 H5          -4.5890    -0.4180    -0.8220 h1         1 E9N       0.064700
     19 H6          -5.0300    -1.1180     0.7410 h1         1 E9N       0.064700
     20 H7          -5.6140    -3.4670     0.9400 ha         1 E9N       0.143500
     21 H8          -6.5070    -5.4600    -0.2040 ha         1 E9N       0.106000
     22 H9          -6.4180    -5.6130    -2.6640 ha         1 E9N       0.098000
     23 H10         -5.4440    -3.7680    -3.9790 ha         1 E9N       0.106000
     24 H11         -4.5550    -1.7740    -2.8350 ha         1 E9N       0.143500
     25 O1          -0.6050     0.0480    -1.0450 o          1 E9N      -0.875800
     26 H12         -0.4950    -0.8870     1.8720 hc         1 E9N       0.049700
@<TRIPOS>BOND
     1    13    14 ar
     2    13    12 ar
     3    14    15 ar
     4    12    11 ar
     5    15    10 ar
     6     6     5 1
     7    11    10 ar
     8    10     9 1
     9     5     4 1
    10     5     7 1
    11     4     8 1
    12     4     3 1
    13     9     8 1
    14     3     1 1
    15     2     1 1
    16     3    16 1
    17     4    17 1
    18     9    18 1
    19     9    19 1
    20    11    20 1
    21    12    21 1
    22    13    22 1
    23    14    23 1
    24    15    24 1
    25     1    25 1
    26     3    26 1
@<TRIPOS>SUBSTRUCTURE
     1 E9N         1 TEMP              0 ****  ****    0 ROOT
