@<TRIPOS>MOLECULE
E9P
   30    31     1     0     0
SMALL
bcc


@<TRIPOS>ATOM
      1 C1         -0.1900   -0.7490    0.4840 ca        1 E9P     -0.002900
      2 C2          1.1340   -0.4130    0.1380 ca        1 E9P      0.133100
      3 C3          2.0280    0.0110    1.1330 ca        1 E9P     -0.151000
      4 C4          1.5950    0.1010    2.4570 ca        1 E9P     -0.046300
      5 C5          0.2740   -0.2360    2.7890 ca        1 E9P     -0.155000
      6 C6         -0.6180   -0.6610    1.8120 ca        1 E9P     -0.105000
      7 O7         -0.9880   -1.2850   -0.5250 os        1 E9P     -0.260200
      8 C8         -2.1700   -0.6030   -0.8070 ca        1 E9P      0.107100
      9 C9         -2.4230    0.7150   -0.4150 ca        1 E9P     -0.165500
     10 C10        -3.6230    1.3140   -0.7990 ca        1 E9P     -0.103000
     11 C11        -4.5520    0.6080   -1.5610 ca        1 E9P     -0.155000
     12 C12        -4.2880   -0.7080   -1.9450 ca        1 E9P     -0.103000
     13 C13        -3.0990   -1.3280   -1.5710 ca        1 E9P     -0.165500
     14 C14         2.5370    0.5440    3.5230 c3        1 E9P     -0.041100
     15 CAA         2.2050    1.9250    4.0340 c3        1 E9P     -0.090100
     16 O16         1.6120   -0.4960   -1.1450 oh        1 E9P     -0.492100
     17 H6         -1.6550   -0.9270    2.0660 ha        1 E9P      0.149000
     18 H3          3.0600    0.2650    0.8510 ha        1 E9P      0.154000
     19 H16         0.8860   -0.8030   -1.7140 ho        1 E9P      0.437000
     20 H5         -0.0550   -0.1650    3.8370 ha        1 E9P      0.138000
     21 H141        3.5900    0.5340    3.1320 hc        1 E9P      0.050700
     22 H142        2.4940   -0.1890    4.3740 hc        1 E9P      0.050700
     23 H9         -1.6880    1.2660    0.1880 ha        1 E9P      0.149500
     24 H13        -2.8760   -2.3640   -1.8640 ha        1 E9P      0.149500
     25 H10        -3.8320    2.3510   -0.4970 ha        1 E9P      0.135000
     26 H11        -5.4950    1.0870   -1.8610 ha        1 E9P      0.134000
     27 H12        -5.0230   -1.2640   -2.5460 ha        1 E9P      0.135000
     28 HAA1        2.2870    2.6800    3.2150 hc        1 E9P      0.037033
     29 HAA2        2.9120    2.2100    4.8510 hc        1 E9P      0.037033
     30 HAA3        1.1640    1.9560    4.4370 hc        1 E9P      0.037033
@<TRIPOS>BOND
     1    1    2 ar  
     2    1    6 ar  
     3    1    7 1   
     4    2    3 ar  
     5    2   16 1   
     6    3    4 ar  
     7    3   18 1   
     8    4    5 ar  
     9    4   14 1   
    10    5    6 ar  
    11    5   20 1   
    12    6   17 1   
    13    7    8 1   
    14    8    9 ar  
    15    8   13 ar  
    16    9   10 ar  
    17    9   23 1   
    18   10   11 ar  
    19   10   25 1   
    20   11   12 ar  
    21   11   26 1   
    22   12   13 ar  
    23   12   27 1   
    24   13   24 1   
    25   14   15 1   
    26   14   21 1   
    27   14   22 1   
    28   15   28 1   
    29   15   29 1   
    30   15   30 1   
    31   16   19 1   
@<TRIPOS>SUBSTRUCTURE
     1 E9P         1 TEMP              0 ****  ****    0 ROOT
