@<TRIPOS>MOLECULE
molecule
   30    31     1     0     0
SMALL
bcc


@<TRIPOS>ATOM
      1 C1           0.0000     0.0000     0.0000 ca         1 E9P       0.116100
      2 C2           1.3920     0.0000     0.0000 ca         1 E9P       0.083100
      3 C3           2.0820     0.0000     1.2020 ca         1 E9P      -0.129000
      4 C4           1.3860    -0.0010     2.3970 ca         1 E9P      -0.101300
      5 C5           0.0040    -0.0000     2.3970 ca         1 E9P      -0.100000
      6 C6          -0.6910     0.0010     1.2010 ca         1 E9P      -0.195000
      7 O7          -0.6810     0.0060    -1.1770 os         1 E9P      -0.237200
      8 C8          -2.0390     0.0240    -1.1280 ca         1 E9P       0.096100
      9 C9          -2.7180     1.2340    -1.1070 ca         1 E9P      -0.136500
     10 C10         -4.0990     1.2480    -1.0560 ca         1 E9P      -0.121000
     11 C11         -4.8030     0.0590    -1.0290 ca         1 E9P      -0.129000
     12 C12         -4.1290    -1.1480    -1.0510 ca         1 E9P      -0.121000
     13 C13         -2.7490    -1.1680    -1.1070 ca         1 E9P      -0.136500
     14 C14          2.1380    -0.0010     3.7030 c3         1 E9P      -0.035100
     15 CAA          2.3930     1.4410     4.1460 c3         1 E9P      -0.088100
     16 O16          2.0740    -0.0010    -1.1770 oh         1 E9P      -0.505100
     17 H6          -1.7740     0.0010     1.2030 ha         1 E9P       0.148000
     18 H3           3.1650    -0.0000     1.2050 ha         1 E9P       0.144000
     19 H16          2.4180     0.8610    -1.3420 ho         1 E9P       0.415000
     20 H5          -0.5370    -0.0010     3.3360 ha         1 E9P       0.134000
     21 H141         3.0840    -0.5120     3.5750 hc         1 E9P       0.048200
     22 H142         1.5510    -0.5110     4.4570 hc         1 E9P       0.048200
     23 H9          -2.1670     2.1660    -1.1290 ha         1 E9P       0.145000
     24 H13         -2.2210    -2.1140    -1.1240 ha         1 E9P       0.145000
     25 H10         -4.6300     2.1920    -1.0390 ha         1 E9P       0.135500
     26 H11         -5.8860     0.0720    -0.9870 ha         1 E9P       0.133000
     27 H12         -4.6830    -2.0790    -1.0320 ha         1 E9P       0.135500
     28 HAA1         2.8400     1.4420     5.1330 hc         1 E9P       0.035700
     29 HAA2         1.4540     1.9820     4.1740 hc         1 E9P       0.035700
     30 HAA3         3.0650     1.9210     3.4450 hc         1 E9P       0.035700
@<TRIPOS>BOND
     1     1     2 ar
     2     1     6 ar
     3     1     7 1
     4     2     3 ar
     5     2    16 1
     6     3     4 ar
     7     4     5 ar
     8     4    14 1
     9     5     6 ar
    10     7     8 1
    11     8     9 ar
    12     8    13 ar
    13     9    10 ar
    14    10    11 ar
    15    11    12 ar
    16    12    13 ar
    17    14    15 1
    18     6    17 1
    19     3    18 1
    20    16    19 1
    21     5    20 1
    22    14    21 1
    23    14    22 1
    24     9    23 1
    25    13    24 1
    26    10    25 1
    27    11    26 1
    28    12    27 1
    29    15    28 1
    30    15    29 1
    31    15    30 1
@<TRIPOS>SUBSTRUCTURE
     1 E9P         1 TEMP              0 ****  ****    0 ROOT
