@<TRIPOS>MOLECULE
E9Q
   24    28     1     0     0
SMALL
bcc


@<TRIPOS>ATOM
      1 C4           0.0000     0.0000     0.0000 c3         1 E9Q      -0.350000
      2 C5           3.3570    -1.4530    -0.8230 c2         1 E9Q      -0.158000
      3 C6           4.4780    -0.6780    -0.3830 c1         1 E9Q      -0.027000
      4 N1           1.2730    -2.0910    -1.1800 n2         1 E9Q      -0.275000
      5 C7           3.4050    -2.6660    -1.5040 c2         1 E9Q      -0.101000
      6 N2           1.4860     0.0000     0.0000 nh         1 E9Q       0.142000
      7 N3           5.3740    -0.0790    -0.0240 n1         1 E9Q      -0.104000
      8 N4           4.5450    -3.3470    -1.8880 nv         1 E9Q      -0.006000
      9 N            2.1310    -3.0540    -1.7210 na         1 E9Q       0.281000
     10 C            1.9860    -1.1330    -0.6430 c2         1 E9Q       0.029000
     11 C3          -0.3890     0.9500     1.1530 DU         1 E9Q      -0.274000
     12 C2           0.8280     0.9500     2.1000 DU         1 E9Q       0.211000
     13 C1           1.8500     0.0000     1.4400 c3         1 E9Q      -0.454000
     14 H2          -0.5520     0.9320    -0.0160 DU         1 E9Q       0.127000
     15 H1          -0.3900    -0.3080    -0.9630 h1         1 E9Q       0.179000
     16 H4           4.9550    -3.1760    -2.7840 hn         1 E9Q       0.054500
     17 H5           5.0560    -4.1720    -1.6420 hn         1 E9Q       0.054500
     18 H            1.6300    -3.7800    -2.1930 hn         1 E9Q       0.109000
     19 H7          -1.3770     1.3870     1.0660 ha         1 E9Q       0.143000
     20 H6          -0.1850     0.6100     2.1610 DU         1 E9Q       0.073000
     21 H8           1.5430     1.7620     2.0490 ha         1 E9Q       0.023000
     22 H9           0.4860     0.6780     3.0910 ha         1 E9Q       0.023000
     23 H10          1.8990     0.9740     1.9120 DU         1 E9Q       0.124000
     24 H11          2.8900    -0.2020     1.6630 h1         1 E9Q       0.175000
@<TRIPOS>BOND
     1     1     6 1   
     2     1    11 1   
     3     1    14 1   
     4     1    15 1   
     5     2     3 1   
     6     2     5 1   
     7     2    10 1   
     8     3     7 1   
     9     4     9 1   
    10     4    10 1   
    11     5     8 1   
    12     5     9 1   
    13     6    10 1   
    14     6    13 1   
    15     8    16 1   
    16     8    17 1   
    17     9    18 1   
    18    11    12 1   
    19    11    14 1   
    20    11    19 1   
    21    11    20 1   
    22    12    13 1   
    23    12    20 1   
    24    12    21 1   
    25    12    22 1   
    26    12    23 1   
    27    13    23 1   
    28    13    24 1   
@<TRIPOS>SUBSTRUCTURE
     1 E9Q         1 TEMP              0 ****  ****    0 ROOT
