@<TRIPOS>MOLECULE
molecule
   24    25     1     0     0
SMALL
bcc


@<TRIPOS>ATOM
      1 C4           0.0000     0.0000     0.0000 c3         1 E9Q      -0.141700
      2 C5           3.3570    -1.4530    -0.8230 cc         1 E9Q      -0.258300
      3 C6           4.4780    -0.6780    -0.3830 cg         1 E9Q       0.303800
      4 N1           1.2730    -2.0910    -1.1800 nd         1 E9Q      -0.570800
      5 C7           3.4050    -2.6660    -1.5040 cd         1 E9Q       0.278300
      6 N2           1.4860     0.0000     0.0000 nh         1 E9Q      -0.584300
      7 N3           5.3740    -0.0790    -0.0240 n1         1 E9Q      -0.409800
      8 N4           4.5450    -3.3470    -1.8880 nv         1 E9Q      -0.955200
      9 N            2.1310    -3.0540    -1.7210 na         1 E9Q      -0.061600
     10 C            1.9860    -1.1330    -0.6430 cc         1 E9Q       0.597200
     11 C3          -0.3890     0.9500     1.1530 c3         1 E9Q      -0.060400
     12 C2           0.8280     0.9500     2.1000 c3         1 E9Q      -0.060400
     13 C1           1.8500     0.0000     1.4400 c3         1 E9Q      -0.141700
     14 H2          -0.5520     0.9320    -0.0160 h1         1 E9Q       0.147700
     15 H1          -0.3900    -0.3080    -0.9630 h1         1 E9Q       0.147700
     16 H4           4.9550    -3.1760    -2.7840 hn         1 E9Q       0.422800
     17 H5           5.0560    -4.1720    -1.6420 hn         1 E9Q       0.422800
     18 H            1.6300    -3.7800    -2.1930 hn         1 E9Q       0.334700
     19 H7          -1.3770     1.3870     1.0660 hc         1 E9Q       0.073950
     20 H6          -0.1850     0.6100     2.1610 hc         1 E9Q       0.073950
     21 H8           1.5430     1.7620     2.0490 hc         1 E9Q       0.073950
     22 H9           0.4860     0.6780     3.0910 hc         1 E9Q       0.073950
     23 H10          1.8990     0.9740     1.9120 h1         1 E9Q       0.147700
     24 H11          2.8900    -0.2020     1.6630 h1         1 E9Q       0.147700
@<TRIPOS>BOND
     1     8     5 1
     2     7     3 3
     3     3     2 1
     4     5     2 2
     5     5     9 1
     6     2    10 1
     7     9     4 1
     8    10     4 2
     9    10     6 1
    10    13     6 1
    11    13    12 1
    12     6     1 1
    13    12    11 1
    14     1    11 1
    15     1    14 1
    16     1    15 1
    17     8    16 1
    18     8    17 1
    19     9    18 1
    20    11    19 1
    21    11    20 1
    22    12    21 1
    23    12    22 1
    24    13    23 1
    25    13    24 1
@<TRIPOS>SUBSTRUCTURE
     1 E9Q         1 TEMP              0 ****  ****    0 ROOT
