@<TRIPOS>MOLECULE
molecule
   22    22     1     0     0
SMALL
bcc


@<TRIPOS>ATOM
      1 C10          0.0000     0.0000     0.0000 ca         1 E9S      -0.093000
      2 C13          1.3870    -0.0120     2.4070 ca         1 E9S       0.099100
      3 C15          2.0900     0.0000     1.2130 ca         1 E9S      -0.007900
      4 C02          1.3500    -0.0020    -5.0050 c          1 E9S       0.847800
      5 C04          2.0880    -0.0010    -3.7210 ce         1 E9S       0.145900
      6 C06          1.4080    -0.0010    -2.5500 cf         1 E9S      -0.358200
      7 C09          1.3970     0.0000     0.0000 ca         1 E9S      -0.110600
      8 C11         -0.6890     0.0000     1.1960 ca         1 E9S      -0.130000
      9 C12         -0.0020    -0.0060     2.3960 ca         1 E9S      -0.149000
     10 O01          2.0270    -0.0020    -6.1700 o          1 E9S      -0.817300
     11 O03          0.1360    -0.0010    -5.0080 o          1 E9S      -0.817300
     12 O05          3.4410    -0.0020    -3.7180 oh         1 E9S      -0.503100
     13 O08          3.3550    -0.0020    -1.2760 o          1 E9S      -0.520100
     14 O14          2.0570    -0.0180     3.5900 oh         1 E9S      -0.518100
     15 Br16         3.9800    -0.0080     1.2250 br         1 E9S      -0.052100
     16 H1          -0.5420     0.0020    -0.9380 ha         1 E9S       0.162000
     17 H3           0.3250    -0.0010    -2.5530 ha         1 E9S       0.154000
     18 H5          -1.7720     0.0020     1.1940 ha         1 E9S       0.129000
     19 H6          -0.5490    -0.0110     3.3310 ha         1 E9S       0.131000
     20 H8           3.7570     0.7470    -4.1950 ho         1 E9S       0.432000
     21 H9           2.1840    -0.9080     3.8750 ho         1 E9S       0.415000
     22 C07          2.1390    -0.0010    -1.2780 c          1 E9S       0.559900
@<TRIPOS>BOND
     1    15     3 1
     2    13    22 2
     3    14     2 1
     4     3     2 ar
     5     3     7 ar
     6    12     5 1
     7     2     9 ar
     8    22     7 1
     9    22     6 1
    10     7     1 ar
    11     9     8 ar
    12     5     6 2
    13     5     4 1
    14     1     8 ar
    15    11     4 1
    16     4    10 1
    17     1    16 1
    18     6    17 1
    19     8    18 1
    20     9    19 1
    21    12    20 1
    22    14    21 1
@<TRIPOS>SUBSTRUCTURE
     1 E9S         1 TEMP              0 ****  ****    0 ROOT
