@<TRIPOS>MOLECULE
molecule
   55    60     1     0     0
SMALL
bcc


@<TRIPOS>ATOM
      1 C4           0.0000     0.0000     0.0000 ca         1 E9T      -0.108000
      2 C5           1.4080     0.0000     0.0000 ca         1 E9T      -0.040000
      3 C6           2.1110     0.0000     1.2330 ca         1 E9T      -0.043000
      4 C7           3.5190     0.0010     1.2330 ca         1 E9T      -0.170000
      5 C8           4.1990     0.0030     0.0590 ca         1 E9T      -0.069000
      6 C9           3.5140     0.0040    -1.1700 ca         1 E9T      -0.090600
      7 C10          2.1290     0.0020    -1.2030 ca         1 E9T      -0.114000
      8 C11          4.2760     0.0060    -2.4330 c          1 E9T       0.878200
      9 C15         -6.9100    -1.2400     4.0330 c3         1 E9T      -0.067400
     10 C1          -0.6780    -0.0020     1.1770 ca         1 E9T      -0.145000
     11 C2           0.0070    -0.0080     2.4020 cp         1 E9T      -0.071000
     12 C3           1.3900    -0.0020     2.4360 ca         1 E9T      -0.101000
     13 O12          3.6900     0.0060    -3.4980 o          1 E9T      -0.833300
     14 O13          5.6240     0.0070    -2.4070 o          1 E9T      -0.833300
     15 C16         -6.4250    -1.2460     5.4850 c3         1 E9T      -0.065033
     16 C17         -4.8950    -1.2500     5.5110 c3         1 E9T      -0.061733
     17 C19         -4.8540     0.0050     3.3520 c3         1 E9T      -0.061733
     18 C20         -6.3840     0.0090     3.3260 c3         1 E9T      -0.065033
     19 C21         -6.9440     0.0030     6.2010 c3         1 E9T      -0.067400
     20 C22         -6.4170     1.2520     5.4930 c3         1 E9T      -0.065033
     21 C23         -4.8870     1.2480     5.5190 c3         1 E9T      -0.061733
     22 C24         -6.9020     1.2580     4.0420 c3         1 E9T      -0.067400
     23 C25         -2.8620    -0.0050     4.8290 ca         1 E9T      -0.085300
     24 C26         -2.1890    -0.0110     6.0440 ca         1 E9T       0.114100
     25 C27         -0.8020    -0.0150     6.0730 ca         1 E9T      -0.213000
     26 C28         -0.0860    -0.0140     4.8940 ca         1 E9T      -0.102000
     27 C29         -0.7580    -0.0090     3.6720 cp         1 E9T      -0.044000
     28 C30         -2.1530    -0.0100     3.6460 ca         1 E9T      -0.111000
     29 H1          -0.5420     0.0050    -0.9380 ha         1 E9T       0.128000
     30 H2           4.0600     0.0000     2.1720 ha         1 E9T       0.111000
     31 H3           5.2820     0.0040     0.0680 ha         1 E9T       0.157000
     32 H4           1.6060     0.0020    -2.1520 ha         1 E9T       0.154000
     33 H7          -1.7610    -0.0060     1.1700 ha         1 E9T       0.116000
     34 H8           1.9120    -0.0060     3.3840 ha         1 E9T       0.121000
     35 H11         -6.7970    -2.1300     5.9870 hc         1 E9T       0.042033
     36 H12         -4.5510    -1.2540     6.5390 hc         1 E9T       0.049867
     37 H13         -4.5270    -2.1340     5.0040 hc         1 E9T       0.049867
     38 H14         -4.4870    -0.8790     2.8450 hc         1 E9T       0.049867
     39 H15         -4.4810     0.8900     2.8500 hc         1 E9T       0.049867
     40 H16         -6.7270     0.0140     2.2980 hc         1 E9T       0.042033
     41 H17         -6.6010    -0.0010     7.2280 hc         1 E9T       0.036700
     42 H18         -8.0270     0.0060     6.1820 hc         1 E9T       0.036700
     43 H19         -6.7850     2.1360     6.0000 hc         1 E9T       0.042033
     44 H20         -4.5150     2.1330     5.0180 hc         1 E9T       0.049867
     45 H21         -4.5440     1.2440     6.5470 hc         1 E9T       0.049867
     46 H22         -6.5300     2.1430     3.5400 hc         1 E9T       0.036700
     47 H23         -7.9850     1.2610     4.0230 hc         1 E9T       0.036700
     48 H24         -0.2800    -0.0140     7.0220 ha         1 E9T       0.122000
     49 H25          0.9960    -0.0740     4.9160 ha         1 E9T       0.137000
     50 H26         -2.4150    -0.5910     2.7710 ha         1 E9T       0.156000
     51 C18         -4.3690    -0.0010     4.8030 c3         1 E9T       0.006300
     52 H5          -7.9930    -1.2370     4.0150 hc         1 E9T       0.036700
     53 O14         -2.8910    -0.0120     7.2070 oh         1 E9T      -0.504100
     54 H6          -6.5430    -2.1240     3.5260 hc         1 E9T       0.036700
     55 H10         -2.2920    -0.0190     7.9360 ho         1 E9T       0.412000
@<TRIPOS>BOND
     1    13     8 1
     2     5     4 ar
     3     5     6 ar
     4     8     6 1
     5     8    14 1
     6     4     3 ar
     7     6     7 ar
     8     7     2 ar
     9     3     2 ar
    10     3    12 ar
    11     2     1 ar
    12    12    11 ar
    13     1    10 ar
    14    11    10 ar
    15    11    27 1
    16    26    27 ar
    17    26    25 ar
    18    27    28 ar
    19    25    24 ar
    20    28    23 ar
    21    24    23 ar
    22    24    53 1
    23    23    51 1
    24    16    51 1
    25    16    15 1
    26    17    51 1
    27    17    18 1
    28    51    21 1
    29     9    15 1
    30     9    18 1
    31    15    19 1
    32    18    22 1
    33    21    20 1
    34    19    20 1
    35    22    20 1
    36     1    29 1
    37     4    30 1
    38     5    31 1
    39     7    32 1
    40     9    52 1
    41     9    54 1
    42    10    33 1
    43    12    34 1
    44    53    55 1
    45    15    35 1
    46    16    36 1
    47    16    37 1
    48    17    38 1
    49    17    39 1
    50    18    40 1
    51    19    41 1
    52    19    42 1
    53    20    43 1
    54    21    44 1
    55    21    45 1
    56    22    46 1
    57    22    47 1
    58    25    48 1
    59    26    49 1
    60    28    50 1
@<TRIPOS>SUBSTRUCTURE
     1 E9T         1 TEMP              0 ****  ****    0 ROOT
