@<TRIPOS>MOLECULE
molecule
   42    44     1     0     0
SMALL
bcc


@<TRIPOS>ATOM
      1 N1           0.0000     0.0000     0.0000 nb         1 E9Z      -0.819000
      2 C2           1.3240     0.0000     0.0000 ca         1 E9Z       0.975900
      3 N3           2.0200     0.0000     1.1280 nb         1 E9Z      -0.857000
      4 C4           1.4010    -0.0010     2.3040 ca         1 E9Z       0.780200
      5 C5           0.0050     0.0000     2.3360 ca         1 E9Z      -0.349200
      6 C6          -0.6820     0.0000     1.1360 ca         1 E9Z       0.537200
      7 CAA         -1.9720     1.7310    -9.7670 c3         1 E9Z       0.128700
      8 CAC          0.1300     0.8830    -2.4570 ca         1 E9Z      -0.105000
      9 CAD          1.7390    -0.5300    -3.5510 ca         1 E9Z      -0.105000
     10 CAE         -0.5710     0.9990    -3.6410 ca         1 E9Z      -0.175000
     11 CAF          1.0300    -0.4230    -4.7320 ca         1 E9Z      -0.175000
     12 CAH         -1.2020     0.0080    -8.2870 c3         1 E9Z       0.138400
     13 CAI         -0.2970    -0.2380    -7.0790 c3         1 E9Z       0.141400
     14 CAJ          4.3390    -0.5770     4.6440 cx         1 E9Z      -0.157900
     15 CAK          4.3330     0.9330     4.3980 cx         1 E9Z      -0.157900
     16 NAN          2.0000     0.0000    -1.2090 nu         1 E9Z      -0.748300
     17 NAO          2.1320    -0.0010     3.4830 nu         1 E9Z      -0.867900
     18 OAP         -1.1570     1.3920    -8.6420 os         1 E9Z      -0.419600
     19 OAQ         -0.8160     0.4610    -5.9450 os         1 E9Z      -0.319900
     20 CAS          1.2880     0.1180    -2.4090 ca         1 E9Z       0.118600
     21 CAT         -0.1230     0.3460    -4.7800 ca         1 E9Z       0.128100
     22 CAW          3.5960    -0.0020     3.4360 cx         1 E9Z       0.184500
     23 Cl5         -0.8500     0.0000     3.8480 cl         1 E9Z      -0.109400
     24 H6          -1.7650     0.0000     1.1250 h4         1 E9Z       0.040100
     25 HAA         -1.8840     2.7910    -9.9700 h1         1 E9Z       0.030700
     26 HAAA        -1.6450     1.1680   -10.6330 h1         1 E9Z       0.030700
     27 HAAB        -3.0060     1.4900    -9.5490 h1         1 E9Z       0.030700
     28 HAC         -0.2220     1.3910    -1.5670 ha         1 E9Z       0.146500
     29 HAD          2.6410    -1.1290    -3.5140 ha         1 E9Z       0.146500
     30 HAE         -1.4730     1.5980    -3.6790 ha         1 E9Z       0.140500
     31 HAF          1.3810    -0.9300    -5.6220 ha         1 E9Z       0.140500
     32 HAH         -0.8600    -0.5900    -9.1230 h1         1 E9Z       0.035700
     33 HAHA        -2.2200    -0.2670    -8.0380 h1         1 E9Z       0.035700
     34 HAI          0.7020     0.1200    -7.2970 h1         1 E9Z       0.044200
     35 HAIA        -0.2610    -1.2990    -6.8640 h1         1 E9Z       0.044200
     36 HAJ          3.7130    -0.9210     5.4590 hc         1 E9Z       0.078700
     37 HAJA         5.2710    -1.0830     4.4220 hc         1 E9Z       0.078700
     38 HAK          5.2610     1.3490     4.0250 hc         1 E9Z       0.078700
     39 HAKA         3.7030     1.5120     5.0620 hc         1 E9Z       0.078700
     40 HNAN         3.0000    -0.0440    -1.2230 hn         1 E9Z       0.464800
     41 HNAO         1.6590    -0.0310     4.3640 hn         1 E9Z       0.463800
     42 HAW          4.0900    -0.1560     2.4850 h1         1 E9Z       0.122700
@<TRIPOS>BOND
     1     6     1 ar
     2     1     2 ar
     3     2    16 1
     4     2     3 ar
     5     4     3 ar
     6     5     4 ar
     7     4    17 1
     8    23     5 1
     9     6     5 ar
    10     6    24 1
    11    18     7 1
    12     7    25 1
    13     7    26 1
    14     7    27 1
    15    20     8 ar
    16     8    10 ar
    17     8    28 1
    18    20     9 ar
    19     9    11 ar
    20     9    29 1
    21    10    21 ar
    22    10    30 1
    23    11    21 ar
    24    11    31 1
    25    13    12 1
    26    12    18 1
    27    12    32 1
    28    12    33 1
    29    19    13 1
    30    13    34 1
    31    13    35 1
    32    22    14 1
    33    15    14 1
    34    14    36 1
    35    14    37 1
    36    22    15 1
    37    15    38 1
    38    15    39 1
    39    16    20 1
    40    16    40 1
    41    17    22 1
    42    17    41 1
    43    21    19 1
    44    22    42 1
@<TRIPOS>SUBSTRUCTURE
     1 E9Z         1 TEMP              0 ****  ****    0 ROOT
