@<TRIPOS>MOLECULE
EA1
   17    19     1     0     0
SMALL
bcc


@<TRIPOS>ATOM
      1 N7         -0.0610    0.0030   -0.0850 nc        1 EA1     -0.508100
      2 C8          1.2890   -0.0000   -0.0150 cd        1 EA1      0.385700
      3 C5         -0.4870    0.0010    1.2400 cc        1 EA1      0.003100
      4 C4          0.6560   -0.0030    2.1340 cd        1 EA1      0.347800
      5 N3          0.5890   -0.0060    3.5210 nd        1 EA1     -0.657000
      6 N9          1.7800   -0.0040    1.3010 na        1 EA1     -0.342000
      7 C6         -1.7890    0.0030    1.8360 cc        1 EA1      0.035700
      8 N6         -3.0490    0.0060    1.3400 nd        1 EA1     -0.250600
      9 C11        -3.8880    0.0060    2.4530 cd        1 EA1      0.009600
     10 N1         -1.8080   -0.0000    3.2840 na        1 EA1     -0.175100
     11 C10        -3.1550    0.0020    3.6550 cc        1 EA1     -0.207100
     12 C2         -0.6320   -0.0040    4.0270 cc        1 EA1      0.532400
     13 H8          1.9620    0.0000   -0.8810 h5        1 EA1      0.077800
     14 HN9         2.7210   -0.0060    1.5950 hn        1 EA1      0.319700
     15 H11        -4.9720    0.0080    2.3350 h4        1 EA1      0.185000
     16 H10        -3.4740    0.0000    4.6940 h4        1 EA1      0.184000
     17 H2         -0.7400   -0.0060    5.1310 h5        1 EA1      0.060100
@<TRIPOS>BOND
     1    1    2 2   
     2    1    3 1   
     3    2    6 1   
     4    2   13 1   
     5    3    4 2   
     6    3    7 1   
     7    4    5 1   
     8    4    6 1   
     9    5   12 2   
    10    6   14 1   
    11    7    8 2   
    12    7   10 1   
    13    8    9 1   
    14    9   11 2   
    15    9   15 1   
    16   10   11 1   
    17   10   12 1   
    18   11   16 1   
    19   12   17 1   
@<TRIPOS>SUBSTRUCTURE
     1 EA1         1 TEMP              0 ****  ****    0 ROOT
