@<TRIPOS>MOLECULE
molecule
   17    19     1     0     0
SMALL
bcc


@<TRIPOS>ATOM
      1 N7           0.0000     0.0000     0.0000 nc         1 EA1      -0.552100
      2 C8           1.3030     0.0000     0.0000 cd         1 EA1       0.404700
      3 C5          -0.4490    -0.0010     1.2740 cc         1 EA1       0.025100
      4 C4           0.6700    -0.0060     2.1110 cd         1 EA1       0.365800
      5 N3           0.5050    -0.0080     3.4400 nd         1 EA1      -0.698000
      6 N9           1.7630     0.0000     1.2800 na         1 EA1      -0.327000
      7 C6          -1.7690    -0.0030     1.9000 cc         1 EA1       0.031700
      8 N6          -3.0020     0.0070     1.4380 nd         1 EA1      -0.282600
      9 C11         -3.8570     0.0070     2.4680 cd         1 EA1       0.032600
     10 N1          -1.8240    -0.0010     3.2730 na         1 EA1      -0.142100
     11 C10         -3.1500     0.0030     3.6150 cc         1 EA1      -0.233100
     12 C2          -0.6700    -0.0060     3.9970 cc         1 EA1       0.551400
     13 H8           1.9260     0.0000    -0.8860 h5         1 EA1       0.084800
     14 HN9          2.7230    -0.0000     1.5640 hn         1 EA1       0.313700
     15 H11         -4.9380     0.0110     2.3920 h4         1 EA1       0.186000
     16 H10         -3.5550     0.0020     4.6200 h4         1 EA1       0.180000
     17 H2          -0.7330    -0.0070     5.0780 h5         1 EA1       0.061100
@<TRIPOS>BOND
     1     1     2 2
     2     1     3 1
     3     2     6 1
     4     2    13 1
     5     3     4 2
     6     3     7 1
     7     4     5 1
     8     4     6 1
     9     5    12 2
    10     6    14 1
    11     7     8 2
    12     7    10 1
    13     8     9 1
    14     9    11 2
    15     9    15 1
    16    10    11 1
    17    10    12 1
    18    11    16 1
    19    12    17 1
@<TRIPOS>SUBSTRUCTURE
     1 EA1         1 TEMP              0 ****  ****    0 ROOT
