@<TRIPOS>MOLECULE
EA4
   35    35     1     0     0
SMALL
bcc


@<TRIPOS>ATOM
      1 C            0.0000     0.0000     0.0000 c          1 EA4       0.691100
      2 N            0.1990     0.0000     2.4190 ns         1 EA4      -0.226900
      3 O            1.2090     0.0000     0.0000 o          1 EA4      -0.598000
      4 CA          -0.7530     0.0000     1.3050 c3         1 EA4       0.025000
      5 CAA         -0.8130     0.0170    -3.5930 c3         1 EA4      -0.003100
      6 OAC         -1.4450     0.0000     3.9110 o          1 EA4      -0.712100
      7 CAE          2.9210     1.2030     8.3430 ca         1 EA4      -0.116000
      8 CAF          2.9210    -1.2020     8.3430 ca         1 EA4      -0.116000
      9 CAG          1.8470     1.1990     7.4750 ca         1 EA4      -0.078500
     10 CAH          1.8470    -1.1980     7.4760 ca         1 EA4      -0.078500
     11 CAI          0.1190     0.0110    -2.3800 c3         1 EA4       0.227400
     12 CAK          0.1380     0.0000     6.0950 c3         1 EA4       0.129300
     13 NAM          0.6260     0.0010     4.7130 ns         1 EA4      -0.215900
     14 OAN         -0.6710     0.0050    -1.1620 os         1 EA4      -0.407900
     15 CAO         -0.2500     0.0010     3.6900 c          1 EA4       0.580100
     16 CAQ          3.4620    -0.0000     8.7810 ca         1 EA4       0.039600
     17 CAR          1.3110     0.0010     7.0420 ca         1 EA4      -0.133300
     18 HN           1.1830    -0.0020     2.2350 hn         1 EA4       0.195500
     19 HA          -1.3760    -0.8850     1.3630 h1         1 EA4       0.046700
     20 HAA         -1.3760     0.8840     1.3630 h1         1 EA4       0.046700
     21 HAAA        -1.4380    -0.8670    -3.5720 hc         1 EA4       0.012033
     22 HAAB        -1.4380     0.9020    -3.5640 hc         1 EA4       0.012033
     23 HAAC        -0.2230     0.0220    -4.5020 hc         1 EA4       0.012033
     24 HNAB         4.3940    -0.0000    10.6470 hn         1 EA4       0.274300
     25 HNAA         5.4830    -0.0010     9.2980 hn         1 EA4       0.274300
     26 HAE          3.3420     2.1420     8.6820 ha         1 EA4       0.110000
     27 HAF          3.3410    -2.1420     8.6830 ha         1 EA4       0.110000
     28 HAG          1.4240     2.1360     7.1330 ha         1 EA4       0.107000
     29 HAH          1.4240    -2.1350     7.1340 ha         1 EA4       0.107000
     30 HAI          0.7440    -0.8730    -2.4100 h1         1 EA4       0.009700
     31 HAIA         0.7440     0.8960    -2.4010 h1         1 EA4       0.009700
     32 HAK         -0.4630    -0.8850     6.2650 h1         1 EA4       0.027700
     33 HAKA        -0.4650     0.8840     6.2660 h1         1 EA4       0.027700
     34 HNAM         1.6100     0.0190     4.5300 hn         1 EA4       0.173500
     35 NAB          4.5490    -0.0000     9.6580 nv         1 EA4      -0.562200
@<TRIPOS>BOND
     1     1     3 2   
     2     1     4 1   
     3     1    14 1   
     4     2     4 1   
     5     2    15 1   
     6     2    18 1   
     7     4    19 1   
     8     4    20 1   
     9     5    11 1   
    10     5    21 1   
    11     5    22 1   
    12     5    23 1   
    13     6    15 2   
    14     7     9 ar  
    15     7    16 ar  
    16     7    26 1   
    17     8    10 ar  
    18     8    16 ar  
    19     8    27 1   
    20     9    17 ar  
    21     9    28 1   
    22    10    17 ar  
    23    10    29 1   
    24    11    14 1   
    25    11    30 1   
    26    11    31 1   
    27    12    13 1   
    28    12    17 1   
    29    12    32 1   
    30    12    33 1   
    31    13    15 1   
    32    13    34 1   
    33    16    35 1   
    34    24    35 1   
    35    25    35 1   
@<TRIPOS>SUBSTRUCTURE
     1 EA4         1 TEMP              0 ****  ****    0 ROOT
