@<TRIPOS>MOLECULE
EA5
   43    43     1     0     0
SMALL
bcc


@<TRIPOS>ATOM
      1 P           1.2840    1.9010   -0.1490 p5        1 EA5      1.320900
      2 OP1         2.4100    2.8890   -0.2530 o         1 EA5     -0.929833
      3 OP2         0.9290    1.4200    1.2300 o         1 EA5     -0.929833
      4 OP3         1.1910    0.8470   -1.2290 o         1 EA5     -0.929833
      5 OP4        -0.1200    2.8650   -0.5490 os        1 EA5     -0.553200
      6 C5A        -1.2430    2.1220   -0.7900 c3        1 EA5      0.268700
      7 C5         -1.8280    2.4170   -2.1600 ca        1 EA5     -0.131600
      8 C6         -2.3500    3.7140   -2.3680 ca        1 EA5      0.350200
      9 N1         -2.9270    4.1400   -3.5000 nb        1 EA5     -0.697000
     10 C2         -2.9900    3.2630   -4.5290 ca        1 EA5      0.306600
     11 C2A        -3.6180    3.6680   -5.8210 c3        1 EA5     -0.108400
     12 C3         -2.4650    1.9430   -4.4270 ca        1 EA5      0.021800
     13 O3         -2.5900    1.1980   -5.5770 oh        1 EA5     -0.554100
     14 C4         -1.8870    1.4940   -3.2210 ca        1 EA5     -0.092300
     15 C4A        -1.2960    0.1320   -2.9780 c3        1 EA5      0.144100
     16 N4A        -1.2740   -0.7760   -4.1100 n3        1 EA5     -0.860200
     17 N4         -1.0200   -3.5030   -5.4460 n3        1 EA5     -0.902800
     18 CA         -2.2420   -2.7180   -5.3530 c3        1 EA5      0.148500
     19 C          -2.2820   -1.8160   -4.0910 c3        1 EA5      0.166800
     20 CB         -3.5430   -3.5330   -5.4600 c3        1 EA5     -0.098400
     21 CG         -3.7010   -4.6550   -4.4630 c3        1 EA5     -0.189400
     22 CD         -4.6220   -5.7640   -4.9970 c         1 EA5      0.904600
     23 OE1        -5.5370   -6.2040   -4.2400 o         1 EA5     -0.865800
     24 OE2        -4.4160   -6.2230   -6.1620 o         1 EA5     -0.865800
     25 H5A1       -1.0360    1.0210   -0.6710 h1        1 EA5     -0.001300
     26 H5A2       -2.0630    2.4080   -0.0540 h1        1 EA5     -0.001300
     27 H6         -2.2620    4.4550   -1.5540 h4        1 EA5      0.017100
     28 H2A1       -4.5090    3.0210   -6.0180 hc        1 EA5      0.022367
     29 H2A2       -3.9410    4.7370   -5.8240 hc        1 EA5      0.022367
     30 H2A3       -2.8860    3.5070   -6.6510 hc        1 EA5      0.022367
     31 HO3        -2.0670    0.3810   -5.4660 ho        1 EA5      0.459000
     32 H4A1       -0.2210    0.3100   -2.5950 h1        1 EA5      0.118700
     33 H4A2       -1.8650   -0.3240   -2.1130 h1        1 EA5      0.118700
     34 HN4A       -0.3580   -1.1670   -4.2170 hn        1 EA5      0.381800
     35 HA         -2.2240   -2.0330   -6.2580 h1        1 EA5      0.044700
     36 H1         -3.2890   -1.3110   -4.0670 h1        1 EA5      0.030200
     37 H2         -2.2170   -2.4730   -3.1750 h1        1 EA5      0.030200
     38 HB1        -4.4070   -2.8250   -5.3620 hc        1 EA5      0.044200
     39 HB2        -3.5920   -3.9760   -6.4930 hc        1 EA5      0.044200
     40 HG1        -2.7150   -5.1350   -4.2350 hc        1 EA5      0.024200
     41 HG2        -4.1130   -4.2630   -3.4990 hc        1 EA5      0.024200
     42 HN41       -0.7460   -3.8210   -4.5340 hn        1 EA5      0.337300
     43 HN42       -1.1920   -4.3140   -6.0130 hn        1 EA5      0.337300
@<TRIPOS>BOND
     1    1    2 1   
     2    1    3 1   
     3    1    4 1   
     4    1    5 1   
     5    5    6 1   
     6    6    7 1   
     7    6   25 1   
     8    6   26 1   
     9    7    8 ar  
    10    7   14 ar  
    11    8    9 ar  
    12    8   27 1   
    13    9   10 ar  
    14   10   11 1   
    15   10   12 ar  
    16   11   28 1   
    17   11   29 1   
    18   11   30 1   
    19   12   13 1   
    20   12   14 ar  
    21   13   31 1   
    22   14   15 1   
    23   15   16 1   
    24   15   32 1   
    25   15   33 1   
    26   16   19 1   
    27   16   34 1   
    28   17   18 1   
    29   17   42 1   
    30   17   43 1   
    31   18   19 1   
    32   18   20 1   
    33   18   35 1   
    34   19   36 1   
    35   19   37 1   
    36   20   21 1   
    37   20   38 1   
    38   20   39 1   
    39   21   22 1   
    40   21   40 1   
    41   21   41 1   
    42   22   23 1   
    43   22   24 1   
@<TRIPOS>SUBSTRUCTURE
     1 EA5         1 TEMP              0 ****  ****    0 ROOT
