@<TRIPOS>MOLECULE
molecule
   44    44     1     0     0
SMALL
bcc


@<TRIPOS>ATOM
      1 P            0.0000     0.0000     0.0000 p5         1 EA5       1.278900
      2 OP1          1.4840     0.0000     0.0000 o          1 EA5      -0.899500
      3 OP2         -0.5890     0.0000     1.4530 o          1 EA5      -0.899500
      4 OP3         -0.7750    -1.1490    -0.4470 o          1 EA5      -0.899500
      5 OP4         -0.5080     1.2920    -0.7700 os         1 EA5      -0.598200
      6 C5A         -1.9230     1.6170    -0.9270 c3         1 EA5       0.251700
      7 C5          -2.1160     2.3770    -2.2440 ca         1 EA5      -0.149600
      8 C6          -2.2580     3.7350    -2.1870 ca         1 EA5       0.405200
      9 N1          -2.4380     4.4410    -3.3560 nb         1 EA5      -0.720000
     10 C2          -2.4780     3.8130    -4.5990 ca         1 EA5       0.333600
     11 C2A         -2.6830     4.6760    -5.8560 c3         1 EA5      -0.121400
     12 C3          -2.3350     2.4310    -4.6750 ca         1 EA5      -0.040200
     13 O3          -2.3730     1.7750    -5.9180 oh         1 EA5      -0.528100
     14 C4          -2.1520     1.7090    -3.4770 ca         1 EA5      -0.015300
     15 C4A         -1.9950     0.1970    -3.5060 c3         1 EA5       0.199100
     16 N4A         -2.0230    -0.5350    -4.6520 n7         1 EA5      -0.854200
     17 N4          -2.1830    -2.8690    -6.9120 nz         1 EA5      -0.815600
     18 CA          -2.7970    -2.7110    -5.5630 c3         1 EA5       0.088500
     19 C           -1.8520    -1.9840    -4.5680 c3         1 EA5       0.182800
     20 CB          -3.2850    -4.1010    -5.0320 c3         1 EA5      -0.072400
     21 CG          -2.4310    -4.8280    -3.9640 c3         1 EA5      -0.212400
     22 CD          -2.9990    -4.7640    -2.5400 c          1 EA5       0.915600
     23 OE1         -2.6650    -5.6540    -1.7430 o          1 EA5      -0.810800
     24 OE2         -3.7650    -3.8260    -2.2060 o          1 EA5      -0.810800
     25 H5A1        -2.2470     2.2360    -0.1000 h1         1 EA5       0.046200
     26 H5A2        -2.5050     0.7040    -0.9470 h1         1 EA5       0.046200
     27 H6          -2.2320     4.2490    -1.2340 h4         1 EA5       0.035100
     28 H2A1        -1.7840     4.6550    -6.4600 hc         1 EA5       0.032367
     29 H2A2        -2.8960     5.6970    -5.5620 hc         1 EA5       0.032367
     30 H2A3        -3.5140     4.2850    -6.4310 hc         1 EA5       0.032367
     31 HO3         -1.6970     2.1220    -6.4770 ho         1 EA5       0.385000
     32 H4A1        -2.7740    -0.2040    -2.8680 h1         1 EA5       0.097700
     33 H4A2        -1.0480    -0.0210    -3.0260 h1         1 EA5       0.097700
     34 HN4A        -1.3630    -0.1580    -5.3040 hn         1 EA5       0.327800
     35 HA          -3.6750    -2.0870    -5.6820 hx         1 EA5       0.100700
     36 H1          -0.8250    -2.2360    -4.8040 h1         1 EA5       0.100700
     37 H2          -2.0760    -2.3120    -3.5600 h1         1 EA5       0.100700
     38 HB1         -3.3730    -4.7630    -5.8850 hc         1 EA5       0.038200
     39 HB2         -4.2760    -3.9620    -4.6180 hc         1 EA5       0.038200
     40 HG1         -1.4420    -4.3870    -3.9580 hc         1 EA5       0.029200
     41 HG2         -2.3400    -5.8700    -4.2490 hc         1 EA5       0.029200
     42 HN42        -2.8380    -3.3100    -7.5270 hn         1 EA5       0.407467
     43 H42         -1.3600    -3.4340    -6.8400 hn         1 EA5       0.407467
     44 HN41        -1.9390    -1.9690    -7.2750 hn         1 EA5       0.407467
@<TRIPOS>BOND
     1     1     2 1
     2     1     3 1
     3     1     4 1
     4     1     5 1
     5     5     6 1
     6     6     7 1
     7     6    25 1
     8     6    26 1
     9     7     8 ar
    10     7    14 ar
    11     8     9 ar
    12     8    27 1
    13     9    10 ar
    14    10    11 1
    15    10    12 ar
    16    11    28 1
    17    11    29 1
    18    11    30 1
    19    12    13 1
    20    12    14 ar
    21    13    31 1
    22    14    15 1
    23    15    16 1
    24    15    32 1
    25    15    33 1
    26    16    19 1
    27    16    34 1
    28    17    18 1
    29    17    44 1
    30    17    42 1
    31    18    19 1
    32    18    20 1
    33    18    35 1
    34    19    36 1
    35    19    37 1
    36    20    21 1
    37    20    38 1
    38    20    39 1
    39    21    22 1
    40    21    40 1
    41    21    41 1
    42    22    23 1
    43    22    24 1
    44    43    17 1
@<TRIPOS>SUBSTRUCTURE
     1 EA5         1 TEMP              0 ****  ****    0 ROOT
