@<TRIPOS>MOLECULE
molecule
   41    43     1     0     0
SMALL
bcc


@<TRIPOS>ATOM
      1 C4           0.0000     0.0000     0.0000 c3         1 EA7       0.141500
      2 C14         -0.3330     2.4370     2.9390 c3         1 EA7       0.159100
      3 C5           3.5970    -0.6480     2.7940 ca         1 EA7       0.952900
      4 C6           1.8860     0.6890     3.5750 ca         1 EA7       0.481200
      5 C11          5.8970     0.0180     6.2800 ca         1 EA7       0.135900
      6 C7           5.3680    -1.2570     4.3150 ca         1 EA7       0.250600
      7 C8           6.0340    -2.3530     4.8480 ca         1 EA7      -0.194000
      8 C9           6.6290    -2.2640     6.0930 ca         1 EA7       0.135900
      9 C10          6.5620    -1.0790     6.8110 ca         1 EA7      -0.015900
     10 C12          5.3010    -0.0710     5.0350 ca         1 EA7      -0.194000
     11 C13         -0.5070     0.2310    -1.4250 c3         1 EA7      -0.097100
     12 N1           1.4670     0.0000     0.0000 nh         1 EA7      -0.713300
     13 N2           0.1580     1.4000     2.0280 n          1 EA7      -0.368000
     14 C3          -0.5190     1.0930     0.8980 c          1 EA7       0.706500
     15 N3           3.1040    -0.6580     1.5640 nb         1 EA7      -0.806000
     16 C1           1.9860     0.0000     1.2810 ca         1 EA7       0.656200
     17 C2           1.3390     0.7020     2.3060 ca         1 EA7      -0.265000
     18 N4           3.0050     0.0070     3.7830 nb         1 EA7      -0.780000
     19 N5           4.7660    -1.3470     3.0550 nu         1 EA7      -0.748300
     20 O1          -1.5340     1.6910     0.6110 o          1 EA7      -0.606500
     21 C15         -1.2240     1.8280     3.9410 c1         1 EA7      -0.172100
     22 C16         -1.9390     1.3290     4.7260 c1         1 EA7      -0.118500
     23 C17          1.9930    -1.1250    -0.7820 c3         1 EA7       0.146100
     24 O2           7.4830    -0.8530     8.0880 oh         1 EA7      -0.492100
     25 F2           7.3540    -3.2900     6.6120 f          1 EA7      -0.140900
     26 H1          -0.3560    -0.9570     0.3610 h1         1 EA7       0.062700
     27 H2           0.5340     3.0850     2.9880 h1         1 EA7       0.101700
     28 H3          -1.1830     3.0210     2.6080 h1         1 EA7       0.101700
     29 H4           1.2800     1.2440     4.2820 h4         1 EA7       0.049100
     30 H5           6.2220    -3.4190     4.7980 ha         1 EA7       0.185500
     31 H6           4.7750     0.8770     5.0290 ha         1 EA7       0.185500
     32 H7          -0.1060    -0.5360    -2.0770 hc         1 EA7       0.050700
     33 H8          -1.4910     0.0230    -1.8270 hc         1 EA7       0.050700
     34 H9          -0.1640     1.1530    -1.8800 hc         1 EA7       0.050700
     35 H10          5.2150    -2.0240     2.4700 hn         1 EA7       0.475800
     36 H11         -2.6490     1.0700     5.5020 ha         1 EA7       0.170500
     37 H12          1.3030    -0.8490    -1.5700 h1         1 EA7       0.068367
     38 H13          3.0420    -0.9820    -1.0110 h1         1 EA7       0.068367
     39 H14          1.8690    -1.9620    -0.1040 h1         1 EA7       0.068367
     40 H15          6.8740    -1.2340     8.6980 ho         1 EA7       0.395000
     41 F1           5.6920     1.2740     7.0880 f          1 EA7      -0.140900
@<TRIPOS>BOND
     1    22    21 3
     2    18     4 ar
     3    18     3 ar
     4    21     2 1
     5     4    17 ar
     6    19     3 1
     7    19     6 1
     8    10     6 ar
     9    10     5 ar
    10     2    13 1
    11     3    15 ar
    12    41     5 1
    13     6     7 ar
    14    17    13 1
    15    17    16 ar
    16     5     9 ar
    17    13    14 1
    18    15    16 ar
    19    16    12 1
    20     7     8 ar
    21     9     8 ar
    22     9    24 1
    23    14    20 2
    24    14     1 1
    25     8    25 1
    26    12     1 1
    27    12    23 1
    28     1    11 1
    29     1    26 1
    30     2    27 1
    31     2    28 1
    32     4    29 1
    33     7    30 1
    34    10    31 1
    35    11    32 1
    36    11    33 1
    37    11    34 1
    38    19    35 1
    39    22    36 1
    40    23    37 1
    41    23    38 1
    42    23    39 1
    43    24    40 1
@<TRIPOS>SUBSTRUCTURE
     1 EA7         1 TEMP              0 ****  ****    0 ROOT
