@<TRIPOS>MOLECULE
EAA
   30    30     1     0     0
SMALL
bcc


@<TRIPOS>ATOM
      1 C1          0.4640   -0.4400    0.0010 ca        1 EAA      0.202100
      2 O2          0.3480   -0.1100   -1.3130 os        1 EAA     -0.260900
      3 C2          1.5760    0.0980    0.7060 ca        1 EAA     -0.044600
      4 CL1         2.7150    1.0700   -0.0910 cl        1 EAA     -0.054400
      5 C3          1.7270   -0.1860    2.0670 ca        1 EAA      0.085400
      6 CL2         3.0780    0.4240    2.9110 cl        1 EAA     -0.094400
      7 C4          0.7960   -0.9850    2.7480 ca        1 EAA     -0.227600
      8 C5         -0.2680   -1.5440    2.0310 ca        1 EAA     -0.048000
      9 C6         -0.4430   -1.2730    0.6830 ca        1 EAA     -0.228000
     10 C7          0.8960   -1.2760    4.1950 c         1 EAA      0.596900
     11 O1          0.9800   -2.4330    4.6250 o         1 EAA     -0.536100
     12 C8          0.8300   -0.1140    5.1250 ce        1 EAA     -0.180400
     13 C9          1.6760   -0.2560    6.3410 c3        1 EAA     -0.043200
     14 C10         1.4510    0.8030    7.3880 c3        1 EAA     -0.090100
     15 C11         0.0420    0.9320    4.8610 c2        1 EAA     -0.170000
     16 C12        -0.7890   -0.6390   -2.0120 c3        1 EAA     -0.019600
     17 C13        -0.7380   -0.0640   -3.4640 c         1 EAA      0.930600
     18 O          -1.3020    1.0430   -3.6540 o         1 EAA     -0.810300
     19 OXT        -0.1990   -0.7900   -4.3370 o         1 EAA     -0.810300
     20 H5         -0.9740   -2.2090    2.5540 ha        1 EAA      0.137000
     21 H6         -1.2920   -1.7170    0.1430 ha        1 EAA      0.156000
     22 H91         1.4830   -1.2720    6.7860 hc        1 EAA      0.059700
     23 H92         2.7550   -0.2400    6.0200 hc        1 EAA      0.059700
     24 H101        1.7210    1.8150    6.9980 hc        1 EAA      0.031367
     25 H102        0.3820    0.8230    7.7110 hc        1 EAA      0.031367
     26 H103        2.0860    0.5930    8.2830 hc        1 EAA      0.031367
     27 H111       -0.5560    0.9960    3.9400 ha        1 EAA      0.122000
     28 H112       -0.0520    1.7890    5.5410 ha        1 EAA      0.122000
     29 H121       -1.7280   -0.3040   -1.5030 h1        1 EAA      0.026700
     30 H122       -0.7200   -1.7550   -2.0330 h1        1 EAA      0.026700
@<TRIPOS>BOND
     1    1    2 1   
     2    1    3 ar  
     3    1    9 ar  
     4    2   16 1   
     5    3    4 1   
     6    3    5 ar  
     7    5    6 1   
     8    5    7 ar  
     9    7    8 ar  
    10    7   10 1   
    11    8    9 ar  
    12    8   20 1   
    13    9   21 1   
    14   10   11 2   
    15   10   12 1   
    16   12   13 1   
    17   12   15 2   
    18   13   14 1   
    19   13   22 1   
    20   13   23 1   
    21   14   24 1   
    22   14   25 1   
    23   14   26 1   
    24   15   27 1   
    25   15   28 1   
    26   16   17 1   
    27   16   29 1   
    28   16   30 1   
    29   17   18 1   
    30   17   19 1   
@<TRIPOS>SUBSTRUCTURE
     1 EAA         1 TEMP              0 ****  ****    0 ROOT
