@<TRIPOS>MOLECULE
molecule
   30    30     1     0     0
SMALL
bcc


@<TRIPOS>ATOM
      1 C1           0.0000     0.0000     0.0000 ca         1 EAA       0.206100
      2 O2          -0.6400    -0.0120    -1.2330 os         1 EAA      -0.351900
      3 C2           1.4190     0.0000     0.0000 ca         1 EAA      -0.001600
      4 Cl1          2.3130    -0.0160    -1.5350 cl         1 EAA      -0.038400
      5 C3           2.1300     0.0000     1.2230 ca         1 EAA       0.087400
      6 Cl2          3.9030     0.0280     1.1570 cl         1 EAA      -0.101400
      7 C4           1.4220    -0.0150     2.4670 ca         1 EAA      -0.172600
      8 C5           0.0060    -0.0130     2.4330 ca         1 EAA      -0.081000
      9 C6          -0.6860    -0.0090     1.2280 ca         1 EAA      -0.183000
     10 C7           2.1280    -0.0930     3.8230 c          1 EAA       0.582900
     11 O1           3.2250    -0.6310     3.9680 o          1 EAA      -0.527100
     12 C8           1.5210     0.5020     5.1480 ce         1 EAA      -0.195400
     13 C9           0.5370    -0.4600     5.8520 c3         1 EAA      -0.034200
     14 C10         -0.0080    -0.0680     7.2220 c3         1 EAA      -0.087100
     15 C11          2.5600     1.1330     6.1030 c2         1 EAA      -0.182000
     16 C12         -1.3100    -1.1850    -1.7930 c3         1 EAA       0.045400
     17 C13         -1.0460    -1.3960    -3.2820 c          1 EAA       0.906600
     18 O           -1.9410    -1.9170    -3.9840 o          1 EAA      -0.819800
     19 OXT          0.0420    -0.9960    -3.7710 o          1 EAA      -0.819800
     20 H5          -0.5480    -0.0210     3.3640 ha         1 EAA       0.133000
     21 H6          -1.7690    -0.0070     1.2340 ha         1 EAA       0.146000
     22 H91          1.0360    -1.4160     5.9600 hc         1 EAA       0.046700
     23 H92         -0.3100    -0.6020     5.1920 hc         1 EAA       0.046700
     24 H101        -0.2030     0.9970     7.2410 hc         1 EAA       0.034700
     25 H102         0.7200    -0.3160     7.9840 hc         1 EAA       0.034700
     26 H103        -0.9280    -0.6070     7.4120 hc         1 EAA       0.034700
     27 H111         2.3240     1.2110     7.1570 ha         1 EAA       0.125500
     28 H112         3.6040     1.1390     5.8110 ha         1 EAA       0.125500
     29 H121        -0.9730    -2.0640    -1.2550 h1         1 EAA       0.020200
     30 H122        -2.3770    -1.0770    -1.6440 h1         1 EAA       0.020200
@<TRIPOS>BOND
     1     1     2 1
     2     1     3 ar
     3     1     9 ar
     4     2    16 1
     5     3     4 1
     6     3     5 ar
     7     5     6 1
     8     5     7 ar
     9     7     8 ar
    10     7    10 1
    11     8     9 ar
    12     8    20 1
    13     9    21 1
    14    10    11 2
    15    10    12 1
    16    12    13 1
    17    12    15 2
    18    13    14 1
    19    13    22 1
    20    13    23 1
    21    14    24 1
    22    14    25 1
    23    14    26 1
    24    15    27 1
    25    15    28 1
    26    16    17 1
    27    16    29 1
    28    16    30 1
    29    17    18 1
    30    17    19 1
@<TRIPOS>SUBSTRUCTURE
     1 EAA         1 TEMP              0 ****  ****    0 ROOT
