@<TRIPOS>MOLECULE
molecule
   19    18     1     0     0
SMALL
bcc


@<TRIPOS>ATOM
      1 C4           0.0000     0.0000     0.0000 c3         1 EAC      -0.096100
      2 C9           1.5300     0.0000     0.0000 c3         1 EAC       0.147400
      3 O5           2.0140     0.0000     1.3690 os         1 EAC      -0.439900
      4 C10          3.3450    -0.0000     1.5460 c          1 EAC       0.623100
      5 O6           4.0810    -0.0000     0.5880 o          1 EAC      -0.504000
      6 C13          6.2450    -0.0000     4.1240 c3         1 EAC      -0.190100
      7 C14          5.4260    -0.0000     2.8600 c          1 EAC       0.547100
      8 O8           5.9750    -0.0000     1.7840 o          1 EAC      -0.466100
      9 C15          3.9210     0.0000     2.9380 c3         1 EAC      -0.231400
     10 H1          -0.3610    -0.8850     0.5110 hc         1 EAC       0.047033
     11 H2          -0.3610    -0.0000    -1.0210 hc         1 EAC       0.047033
     12 H3          -0.3610     0.8850     0.5110 hc         1 EAC       0.047033
     13 H4           1.8920     0.8850    -0.5110 h1         1 EAC       0.050700
     14 H5           1.8920    -0.8850    -0.5110 h1         1 EAC       0.050700
     15 H6           7.2990    -0.0000     3.8710 hc         1 EAC       0.062367
     16 H7           6.0130    -0.8850     4.7050 hc         1 EAC       0.062367
     17 H8           6.0130     0.8850     4.7050 hc         1 EAC       0.062367
     18 H9           3.5870    -0.8850     3.4670 hc         1 EAC       0.090700
     19 H10          3.5870     0.8850     3.4670 hc         1 EAC       0.090700
@<TRIPOS>BOND
     1     8     7 2
     2     7     6 1
     3     7     9 1
     4     9     4 1
     5     5     4 2
     6     4     3 1
     7     3     2 1
     8     2     1 1
     9     1    10 1
    10     1    11 1
    11     1    12 1
    12     2    13 1
    13     2    14 1
    14     6    15 1
    15     6    16 1
    16     6    17 1
    17     9    18 1
    18     9    19 1
@<TRIPOS>SUBSTRUCTURE
     1 EAC         1 TEMP              0 ****  ****    0 ROOT
