@<TRIPOS>MOLECULE
EAC
   19    18     1     0     0
SMALL
bcc


@<TRIPOS>ATOM
      1 C4          0.4010   -0.0780   -0.1750 c3        1 EAC     -0.101100
      2 C9          1.7350    0.5260    0.1890 c3        1 EAC      0.138400
      3 O5          2.1330   -0.0980    1.4250 os        1 EAC     -0.434900
      4 C10         3.3330    0.2900    1.9460 c         1 EAC      0.644100
      5 O6          3.9880    1.1460    1.3470 o         1 EAC     -0.545000
      6 C13         6.1330    0.1250    3.3510 c3        1 EAC     -0.209100
      7 C14         5.0670   -0.9140    3.2770 c         1 EAC      0.578100
      8 O8          5.3000   -2.1260    3.2810 o         1 EAC     -0.514100
      9 C15         3.6460   -0.4040    3.2350 c3        1 EAC     -0.244400
     10 H1          0.0490    0.3720   -1.1330 hc        1 EAC      0.050033
     11 H2          0.4910   -1.1830   -0.3000 hc        1 EAC      0.050033
     12 H3         -0.3530    0.1240    0.6230 hc        1 EAC      0.050033
     13 H4          2.5180    0.3160   -0.5860 h1        1 EAC      0.053200
     14 H5          1.6670    1.6330    0.3530 h1        1 EAC      0.053200
     15 H6          6.0590    0.6690    4.3240 hc        1 EAC      0.076033
     16 H7          5.9990    0.8620    2.5180 hc        1 EAC      0.076033
     17 H8          7.1460   -0.3410    3.2730 hc        1 EAC      0.076033
     18 H9          2.9290   -1.2570    3.3870 hc        1 EAC      0.102200
     19 H10         3.4970    0.3370    4.0660 hc        1 EAC      0.102200
@<TRIPOS>BOND
     1    1    2 1   
     2    1   10 1   
     3    1   11 1   
     4    1   12 1   
     5    2    3 1   
     6    2   13 1   
     7    2   14 1   
     8    3    4 1   
     9    4    5 2   
    10    4    9 1   
    11    6    7 1   
    12    6   15 1   
    13    6   16 1   
    14    6   17 1   
    15    7    8 2   
    16    7    9 1   
    17    9   18 1   
    18    9   19 1   
@<TRIPOS>SUBSTRUCTURE
     1 EAC         1 TEMP              0 ****  ****    0 ROOT
