@<TRIPOS>MOLECULE
EAE
   32    33     1     0     0
SMALL
bcc


@<TRIPOS>ATOM
      1 C1           0.0000     0.0000     0.0000 c3         1 EAE      -0.017100
      2 C2           1.5300     0.0000     0.0000 c3         1 EAE      -0.052700
      3 C11          2.5010     0.8250     6.4810 c3         1 EAE       0.244700
      4 C12          2.0820     0.0000     2.9460 ca         1 EAE      -0.168000
      5 C13          2.2540    -1.1040     2.0970 ca         1 EAE      -0.118200
      6 C14          2.0750    -2.6140    -1.2490 ce         1 EAE      -0.379200
      7 C15          2.3580    -3.8750    -1.7470 c          1 EAE       0.621300
      8 C16          2.1690    -4.1670    -3.2130 c3         1 EAE      -0.079100
      9 N3           2.0170    -1.1700     0.7370 na         1 EAE       0.321600
     10 C4           2.2490    -2.3440     0.1020 cd         1 EAE       0.100500
     11 S5           2.8180    -3.4680     1.3480 ss         1 EAE      -0.162500
     12 C6           2.7150    -2.2920     2.6650 ca         1 EAE      -0.070100
     13 C7           2.9960    -2.3860     4.0170 ca         1 EAE       0.032000
     14 C8           2.8210    -1.2890     4.8380 ca         1 EAE      -0.229000
     15 C9           2.3630    -0.0970     4.2930 ca         1 EAE       0.187100
     16 O10          2.1950     0.9880     5.0940 os         1 EAE      -0.308900
     17 O17          2.7600    -4.7480    -0.9980 o          1 EAE      -0.596100
     18 H1          -0.3610    -0.0110    -1.0210 hc         1 EAE       0.015033
     19 H2          -0.3610     0.8900     0.5010 hc         1 EAE       0.015033
     20 H3          -0.3610    -0.8790     0.5210 hc         1 EAE       0.015033
     21 H4           1.8910    -0.0390    -1.0210 h1         1 EAE       0.039200
     22 H5           1.8920     0.9030     0.4760 h1         1 EAE       0.039200
     23 H6           2.3260     1.7580     7.0020 h1         1 EAE      -0.000633
     24 H7           1.8690     0.0520     6.9020 h1         1 EAE      -0.000633
     25 H8           3.5410     0.5400     6.5900 h1         1 EAE      -0.000633
     26 H9           1.7260     0.9380     2.5390 ha         1 EAE       0.124000
     27 H10          1.7170    -1.8380    -1.9150 ha         1 EAE       0.130000
     28 H12          2.7950    -3.5030    -3.7970 hc         1 EAE       0.018700
     29 H13          1.1310    -4.0140    -3.4810 hc         1 EAE       0.018700
     30 H14          2.4470    -5.1950    -3.4150 hc         1 EAE       0.018700
     31 H15          3.3530    -3.3200     4.4330 ha         1 EAE       0.112000
     32 H16          3.0400    -1.3580     5.8970 ha         1 EAE       0.128000
@<TRIPOS>BOND
     1     1     2 1   
     2     1    18 1   
     3     1    19 1   
     4     1    20 1   
     5     2     9 1   
     6     2    21 1   
     7     2    22 1   
     8     3    16 1   
     9     3    23 1   
    10     3    24 1   
    11     3    25 1   
    12     4     5 ar  
    13     4    15 ar  
    14     4    26 1   
    15     5     9 1   
    16     5    12 ar  
    17     6     7 1   
    18     6    10 2   
    19     6    27 1   
    20     7     8 1   
    21     7    17 2   
    22     8    28 1   
    23     8    29 1   
    24     8    30 1   
    25     9    10 1   
    26    10    11 1   
    27    11    12 1   
    28    12    13 ar  
    29    13    14 ar  
    30    13    31 1   
    31    14    15 ar  
    32    14    32 1   
    33    15    16 1   
@<TRIPOS>SUBSTRUCTURE
     1 EAE         1 TEMP              0 ****  ****    0 ROOT
