@<TRIPOS>MOLECULE
molecule
   32    33     1     0     0
SMALL
bcc


@<TRIPOS>ATOM
      1 C1           0.0000     0.0000     0.0000 c3         1 EAE      -0.117100
      2 C2           1.5300     0.0000     0.0000 c3         1 EAE       0.036300
      3 C11          2.5010     0.8250     6.4810 c3         1 EAE       0.129700
      4 C12          2.0820     0.0000     2.9460 ca         1 EAE      -0.186000
      5 C13          2.2540    -1.1040     2.0970 ca         1 EAE       0.034800
      6 C14          2.0750    -2.6140    -1.2490 ce         1 EAE      -0.399200
      7 C15          2.3580    -3.8750    -1.7470 c          1 EAE       0.582300
      8 C16          2.1690    -4.1670    -3.2130 c3         1 EAE      -0.181100
      9 N3           2.0170    -1.1700     0.7370 na         1 EAE      -0.112400
     10 C4           2.2490    -2.3440     0.1020 cd         1 EAE       0.200500
     11 S5           2.8180    -3.4680     1.3480 ss         1 EAE      -0.019500
     12 C6           2.7150    -2.2920     2.6650 ca         1 EAE      -0.117100
     13 C7           2.9960    -2.3860     4.0170 ca         1 EAE      -0.018000
     14 C8           2.8210    -1.2890     4.8380 ca         1 EAE      -0.237000
     15 C9           2.3630    -0.0970     4.2930 ca         1 EAE       0.174100
     16 O10          2.1950     0.9880     5.0940 os         1 EAE      -0.327900
     17 O17          2.7600    -4.7480    -0.9980 o          1 EAE      -0.586100
     18 H1          -0.3610    -0.8800     0.5180 hc         1 EAE       0.049033
     19 H2          -0.3610    -0.0090    -1.0210 hc         1 EAE       0.049033
     20 H3          -0.3610     0.8890     0.5030 hc         1 EAE       0.049033
     21 H4           1.8910     0.9030     0.4770 h1         1 EAE       0.064700
     22 H5           1.8920    -0.0390    -1.0210 h1         1 EAE       0.064700
     23 H6           3.5440     0.5530     6.5900 h1         1 EAE       0.044033
     24 H7           2.3130     1.7540     7.0040 h1         1 EAE       0.044033
     25 H8           1.8780     0.0430     6.8980 h1         1 EAE       0.044033
     26 H9           1.7260     0.9380     2.5390 ha         1 EAE       0.147000
     27 H10          1.7170    -1.8380    -1.9150 ha         1 EAE       0.140000
     28 H12          2.7970    -3.5050    -3.7970 hc         1 EAE       0.054033
     29 H13          2.4430    -5.1960    -3.4150 hc         1 EAE       0.054033
     30 H14          1.1320    -4.0110    -3.4820 hc         1 EAE       0.054033
     31 H15          3.3530    -3.3200     4.4330 ha         1 EAE       0.143000
     32 H16          3.0400    -1.3580     5.8970 ha         1 EAE       0.144000
@<TRIPOS>BOND
     1     2     1 1
     2     2     9 1
     3     8     7 1
     4     6     7 1
     5     6    10 2
     6     7    17 2
     7     9    10 1
     8     9     5 1
     9    10    11 1
    10     5     4 ar
    11     5    12 ar
    12     4    15 ar
    13     3    16 1
    14    11    12 1
    15    12    13 ar
    16    15    16 1
    17    15    14 ar
    18    13    14 ar
    19     1    18 1
    20     1    19 1
    21     1    20 1
    22     2    21 1
    23     2    22 1
    24     3    23 1
    25     3    24 1
    26     3    25 1
    27     4    26 1
    28     6    27 1
    29     8    28 1
    30     8    29 1
    31     8    30 1
    32    13    31 1
    33    14    32 1
@<TRIPOS>SUBSTRUCTURE
     1 EAE         1 TEMP              0 ****  ****    0 ROOT
