@<TRIPOS>MOLECULE
EAH
   54    53     1     0     0
SMALL
bcc


@<TRIPOS>ATOM
      1 O1          0.1320   -1.7050    0.0650 o         1 EAH     -0.849800
      2 C1          0.7180   -0.5950    0.2260 c         1 EAH      0.908600
      3 O2          0.7470    0.0370    1.3210 o         1 EAH     -0.849800
      4 C2          1.4630    0.0210   -0.9730 c3        1 EAH     -0.196400
      5 C3          0.6900   -0.1730   -2.2540 c3        1 EAH     -0.071400
      6 C4          1.5230    0.1610   -3.4730 c3        1 EAH     -0.117400
      7 C5          0.7470   -0.0530   -4.7690 c3        1 EAH      0.144100
      8 O3          0.6050   -1.4360   -5.0810 oh        1 EAH     -0.626800
      9 C6          1.4790    0.5890   -5.9490 c3        1 EAH     -0.059200
     10 C7          0.7030    0.4830   -7.2040 c2        1 EAH     -0.107200
     11 C8          0.6540    1.4540   -8.1300 ce        1 EAH     -0.188000
     12 C9         -0.0890    1.3260   -9.3630 ce        1 EAH     -0.089000
     13 C10        -0.1330    2.2920  -10.2990 cf        1 EAH     -0.165000
     14 C11        -0.8770    2.1580  -11.5310 cf        1 EAH     -0.126000
     15 C12        -0.9500    3.0930  -12.4900 c2        1 EAH     -0.172200
     16 C13        -0.2770    4.4120  -12.4280 c3        1 EAH     -0.020000
     17 C14        -0.4750    5.2390  -13.6430 c2        1 EAH     -0.164200
     18 C15        -0.0710    6.5100  -13.7440 c2        1 EAH     -0.181200
     19 C16         0.6120    7.2470  -12.6550 c3        1 EAH     -0.049200
     20 C17         1.0510    8.6320  -13.0850 c3        1 EAH     -0.076400
     21 C18         1.7460    9.3590  -11.9540 c3        1 EAH     -0.080400
     22 C19         2.1850   10.7450  -12.3780 c3        1 EAH     -0.079400
     23 C20         2.8770   11.4730  -11.2550 c3        1 EAH     -0.093100
     24 H2          1.6400    1.1080   -0.7820 hc        1 EAH      0.021700
     25 H2A         2.4610   -0.4820   -1.0460 hc        1 EAH      0.021700
     26 H3         -0.2280    0.4720   -2.2380 hc        1 EAH      0.045700
     27 H3A         0.3410   -1.2410   -2.2950 hc        1 EAH      0.045700
     28 H4          1.8520    1.2310   -3.4170 hc        1 EAH      0.041200
     29 H4A         2.4450   -0.4770   -3.4900 hc        1 EAH      0.041200
     30 H5         -0.2840    0.3930   -4.6750 h1        1 EAH      0.037700
     31 HO3         0.4130   -1.8920   -4.2520 ho        1 EAH      0.421000
     32 H6          2.4620    0.0620   -6.0910 hc        1 EAH      0.056200
     33 H6A         1.6950    1.6600   -5.6950 hc        1 EAH      0.056200
     34 H7          0.1660   -0.4730   -7.3360 ha        1 EAH      0.140000
     35 H8          1.1900    2.4050   -7.9780 ha        1 EAH      0.119000
     36 H9         -0.6350    0.3760   -9.5090 ha        1 EAH      0.120000
     37 H10         0.4100    3.2410  -10.1520 ha        1 EAH      0.120000
     38 H11        -1.4180    1.2040  -11.6640 ha        1 EAH      0.118000
     39 H12        -1.5480    2.8970  -13.3960 ha        1 EAH      0.117000
     40 H13         0.8300    4.2610  -12.2680 hc        1 EAH      0.059700
     41 H13A       -0.6500    4.9790  -11.5270 hc        1 EAH      0.059700
     42 H14        -0.9800    4.7490  -14.4910 ha        1 EAH      0.120000
     43 H15        -0.2410    7.0750  -14.6760 ha        1 EAH      0.118000
     44 H16         1.5070    6.6600  -12.3090 hc        1 EAH      0.049700
     45 H16A       -0.0790    7.3290  -11.7710 hc        1 EAH      0.049700
     46 H17         1.7440    8.5510  -13.9630 hc        1 EAH      0.038700
     47 H17A        0.1580    9.2220  -13.4190 hc        1 EAH      0.038700
     48 H18         2.6390    8.7680  -11.6190 hc        1 EAH      0.041700
     49 H18A        1.0530    9.4380  -11.0750 hc        1 EAH      0.041700
     50 H19         1.2910   11.3330  -12.7140 hc        1 EAH      0.036700
     51 H19A        2.8770   10.6640  -13.2580 hc        1 EAH      0.036700
     52 H20         2.1950   11.5840  -10.3780 hc        1 EAH      0.032367
     53 H20A        3.1930   12.4910  -11.5880 hc        1 EAH      0.032367
     54 H20B        3.7850   10.9140  -10.9220 hc        1 EAH      0.032367
@<TRIPOS>BOND
     1    1    2 1   
     2    2    3 1   
     3    2    4 1   
     4    4    5 1   
     5    4   24 1   
     6    4   25 1   
     7    5    6 1   
     8    5   26 1   
     9    5   27 1   
    10    6    7 1   
    11    6   28 1   
    12    6   29 1   
    13    7    8 1   
    14    7    9 1   
    15    7   30 1   
    16    8   31 1   
    17    9   10 1   
    18    9   32 1   
    19    9   33 1   
    20   10   11 2   
    21   10   34 1   
    22   11   12 1   
    23   11   35 1   
    24   12   13 2   
    25   12   36 1   
    26   13   14 1   
    27   13   37 1   
    28   14   15 2   
    29   14   38 1   
    30   15   16 1   
    31   15   39 1   
    32   16   17 1   
    33   16   40 1   
    34   16   41 1   
    35   17   18 2   
    36   17   42 1   
    37   18   19 1   
    38   18   43 1   
    39   19   20 1   
    40   19   44 1   
    41   19   45 1   
    42   20   21 1   
    43   20   46 1   
    44   20   47 1   
    45   21   22 1   
    46   21   48 1   
    47   21   49 1   
    48   22   23 1   
    49   22   50 1   
    50   22   51 1   
    51   23   52 1   
    52   23   53 1   
    53   23   54 1   
@<TRIPOS>SUBSTRUCTURE
     1 EAH         1 TEMP              0 ****  ****    0 ROOT
