@<TRIPOS>MOLECULE
molecule
   54    53     1     0     0
SMALL
bcc


@<TRIPOS>ATOM
      1 O1           0.0000     0.0000     0.0000 o          1 EAH      -0.857300
      2 C1           1.2090     0.0000     0.0000 c          1 EAH       0.891600
      3 O2           1.8790     0.0000     1.1620 o          1 EAH      -0.857300
      4 C2           1.9620    -0.0060    -1.3040 c3         1 EAH      -0.181400
      5 C3           0.9690    -0.0110    -2.4680 c3         1 EAH      -0.063400
      6 C4           1.7340    -0.0160    -3.7930 c3         1 EAH      -0.094400
      7 C5           0.7410    -0.0220    -4.9560 c3         1 EAH       0.150100
      8 O3          -0.0010    -1.2430    -4.9430 oh         1 EAH      -0.608800
      9 C6           1.5030     0.0980    -6.2780 c3         1 EAH      -0.079200
     10 C7           0.5200     0.2160    -7.4140 c2         1 EAH       0.022800
     11 C8           0.5960     1.2460    -8.2570 ce         1 EAH      -0.437000
     12 C9          -0.3590     1.3620    -9.3610 ce         1 EAH      -0.093000
     13 C10         -0.2810     2.4050   -10.2140 cf         1 EAH      -0.401000
     14 C11         -1.2360     2.5200   -11.3190 cf         1 EAH      -0.347000
     15 C12         -1.2160     3.5940   -12.1080 c2         1 EAH      -0.202200
     16 C13         -0.1190     4.6170   -11.9600 c3         1 EAH       0.053000
     17 C14          0.5590     4.8220   -13.2890 c2         1 EAH      -0.219200
     18 C15          0.6950     6.0300   -13.7760 c2         1 EAH      -0.245200
     19 C16          0.3130     7.2270   -12.9430 c3         1 EAH       0.079800
     20 C17          1.4890     8.2030   -12.8830 c3         1 EAH      -0.098400
     21 C18          1.1030     9.4170   -12.0370 c3         1 EAH      -0.090400
     22 C19          2.2790    10.3930   -11.9770 c3         1 EAH      -0.081400
     23 C20          1.8920    11.6070   -11.1300 c3         1 EAH      -0.092100
     24 H2           2.5850    -0.8910    -1.3570 hc         1 EAH       0.028200
     25 H2A          2.5850     0.8780    -1.3650 hc         1 EAH       0.028200
     26 H3           0.3460     0.8740    -2.4150 hc         1 EAH       0.048200
     27 H3A          0.3460    -0.8950    -2.4080 hc         1 EAH       0.048200
     28 H4           2.3570     0.8680    -3.8540 hc         1 EAH       0.042700
     29 H4A          2.3580    -0.9010    -3.8460 hc         1 EAH       0.042700
     30 H5           0.0610     0.8150    -4.8540 h1         1 EAH       0.039700
     31 HO3         -0.9230    -1.0500    -4.9020 ho         1 EAH       0.399000
     32 H6           2.1170    -0.7820    -6.4220 hc         1 EAH       0.078200
     33 H6A          2.1330     0.9790    -6.2530 hc         1 EAH       0.078200
     34 H7          -0.2490    -0.5360    -7.5460 ha         1 EAH       0.074000
     35 H8           0.6530     0.6770    -9.1770 ha         1 EAH       0.295000
     36 H9          -1.1270     0.6100    -9.4930 ha         1 EAH       0.072000
     37 H10         -1.3000     2.7560   -10.1080 ha         1 EAH       0.344000
     38 H11         -0.2310     2.1470   -11.4790 ha         1 EAH       0.306000
     39 H12         -1.9230     3.6780   -12.9240 ha         1 EAH       0.156000
     40 H13          0.6050     4.2680   -11.2340 hc         1 EAH       0.075200
     41 H13A        -0.5440     5.5550   -11.6230 hc         1 EAH       0.075200
     42 H14          1.1020     4.9310   -12.3570 ha         1 EAH       0.099000
     43 H15         -0.3310     6.3740   -13.7220 ha         1 EAH       0.062000
     44 H16         -0.5430     7.7190   -13.3890 hc         1 EAH       0.044700
     45 H16A         0.0610     6.9030   -11.9400 hc         1 EAH       0.044700
     46 H17          1.7400     8.5270   -13.8860 hc         1 EAH       0.056200
     47 H17A         2.3450     7.7100   -12.4380 hc         1 EAH       0.056200
     48 H18          0.2470     9.9090   -12.4820 hc         1 EAH       0.039700
     49 H18A         0.8510     9.0920   -11.0340 hc         1 EAH       0.039700
     50 H19          2.5310    10.7180   -12.9800 hc         1 EAH       0.041700
     51 H19A         3.1350     9.9010   -11.5320 hc         1 EAH       0.041700
     52 H20          1.0360    12.1000   -11.5760 hc         1 EAH       0.032700
     53 H20A         2.7250    12.2980   -11.0880 hc         1 EAH       0.032700
     54 H20B         1.6400    11.2830   -10.1280 hc         1 EAH       0.032700
@<TRIPOS>BOND
     1     2     1 1
     2     2     3 1
     3     4     2 1
     4     4    24 1
     5     4    25 1
     6     5     4 1
     7     5    26 1
     8     5    27 1
     9     6     5 1
    10     6    28 1
    11     6    29 1
    12     7     6 1
    13     7     9 1
    14     7    30 1
    15     8     7 1
    16     8    31 1
    17     9    32 1
    18     9    33 1
    19    10     9 1
    20    10    34 1
    21    11    10 2
    22    11    35 1
    23    12    11 1
    24    12    36 1
    25    13    12 2
    26    13    37 1
    27    14    13 1
    28    14    38 1
    29    15    14 2
    30    15    39 1
    31    16    15 1
    32    16    40 1
    33    16    41 1
    34    17    16 1
    35    17    42 1
    36    18    17 2
    37    18    43 1
    38    19    18 1
    39    19    20 1
    40    19    44 1
    41    19    45 1
    42    20    21 1
    43    20    46 1
    44    20    47 1
    45    21    48 1
    46    21    49 1
    47    22    21 1
    48    22    23 1
    49    22    50 1
    50    22    51 1
    51    23    52 1
    52    23    53 1
    53    23    54 1
@<TRIPOS>SUBSTRUCTURE
     1 EAH         1 TEMP              0 ****  ****    0 ROOT
