@<TRIPOS>MOLECULE
molecule
   28    29     1     0     0
SMALL
bcc


@<TRIPOS>ATOM
      1 C            0.0000     0.0000     0.0000 c          1 EAJ       0.883200
      2 O            1.3470     0.0000     0.0000 o          1 EAJ      -0.838800
      3 C1          -0.7390     0.0000     1.2790 ca         1 EAJ      -0.109600
      4 C10         -5.1110    -2.7340     4.8030 c3         1 EAJ       0.128700
      5 C11         -2.1150     0.0010     3.6910 ca         1 EAJ      -0.121000
      6 C12         -0.7340     0.0010     3.6850 ca         1 EAJ      -0.171000
      7 C13         -0.0430     0.0000     2.4900 ca         1 EAJ      -0.086000
      8 C2          -2.1330     0.0060     1.2810 ca         1 EAJ      -0.087000
      9 C3          -2.8210     0.0070     2.4890 cp         1 EAJ      -0.083000
     10 C4          -4.3050     0.0120     2.4990 cp         1 EAJ      -0.027000
     11 C5          -5.0070     0.9380     1.7320 ca         1 EAJ      -0.086000
     12 C6          -6.3870     0.9400     1.7440 ca         1 EAJ      -0.171000
     13 C7          -7.0770     0.0230     2.5180 ca         1 EAJ      -0.112000
     14 C8          -6.3920    -0.9010     3.2830 ca         1 EAJ      -0.229000
     15 C9          -5.0050    -0.9170     3.2760 ca         1 EAJ       0.138100
     16 O1          -4.3300    -1.8240     4.0270 os         1 EAJ      -0.307900
     17 O2          -0.6070     0.0040    -1.0520 o          1 EAJ      -0.838800
     18 H5          -5.7270    -2.1780     5.5000 h1         1 EAJ       0.033033
     19 H6          -4.4540    -3.3970     5.3520 h1         1 EAJ       0.033033
     20 H7          -5.7460    -3.3170     4.1460 h1         1 EAJ       0.033033
     21 H8          -2.6510     0.0020     4.6330 ha         1 EAJ       0.110000
     22 H9          -0.1900    -0.0010     4.6220 ha         1 EAJ       0.105000
     23 H10          1.0400     0.0000     2.4910 ha         1 EAJ       0.152000
     24 H           -2.6780     0.0100     0.3450 ha         1 EAJ       0.147000
     25 H1          -4.4700     1.6570     1.1250 ha         1 EAJ       0.148000
     26 H2          -6.9320     1.6610     1.1470 ha         1 EAJ       0.121000
     27 H3          -8.1600     0.0310     2.5250 ha         1 EAJ       0.114000
     28 H4          -6.9380    -1.6170     3.8850 ha         1 EAJ       0.122000
@<TRIPOS>BOND
     1     4    16 1
     2    13    14 ar
     3    13    12 ar
     4    14    15 ar
     5    12    11 ar
     6    15    16 1
     7    15    10 ar
     8    17     1 1
     9    11    10 ar
    10    10     9 1
    11     8     9 ar
    12     8     3 ar
    13     1     2 1
    14     1     3 1
    15     9     5 ar
    16     3     7 ar
    17     5     6 ar
    18     7     6 ar
    19     4    18 1
    20     4    19 1
    21     4    20 1
    22     5    21 1
    23     6    22 1
    24     7    23 1
    25     8    24 1
    26    11    25 1
    27    12    26 1
    28    13    27 1
    29    14    28 1
@<TRIPOS>SUBSTRUCTURE
     1 EAJ         1 TEMP              0 ****  ****    0 ROOT
