@<TRIPOS>MOLECULE
molecule
   47    48     1     0     0
SMALL
bcc


@<TRIPOS>ATOM
      1 O4           0.0000     0.0000     0.0000 o          1 EAL      -0.843300
      2 O5           1.9460     0.0000     1.0470 o          1 EAL      -0.843300
      3 N2           3.5450    -0.0120    -1.0560 n          1 EAL      -0.481800
      4 C5           2.0960     0.0010    -1.3040 c3         1 EAL       0.012700
      5 C6           1.7580    -1.2750    -2.1050 c3         1 EAL      -0.066400
      6 C7           3.1180    -1.6550    -2.7470 c3         1 EAL      -0.115400
      7 C8           4.1130    -1.2430    -1.6330 c3         1 EAL       0.104000
      8 C9           1.3430     0.0000     0.0000 c          1 EAL       0.888600
      9 H5           1.8330     0.8760    -1.8850 h1         1 EAL       0.044700
     10 H61          1.0220    -1.0610    -2.8700 hc         1 EAL       0.044700
     11 H62          1.4160    -2.0610    -1.4430 hc         1 EAL       0.044700
     12 H71          3.2920    -1.0830    -3.6510 hc         1 EAL       0.025700
     13 H72          3.1710    -2.7200    -2.9370 hc         1 EAL       0.025700
     14 H8C1         5.0900    -1.0430    -2.0560 h1         1 EAL       0.031700
     15 H8C2         4.1730    -2.0180    -0.8780 h1         1 EAL       0.031700
     16 O1           3.6650     1.9190     0.0290 o          1 EAL      -0.577100
     17 C2           5.7260     0.7980    -0.2160 c3         1 EAL       0.093500
     18 C10          6.0170    -0.4770     0.5760 c3         1 EAL      -0.140100
     19 HA           6.2080     0.7390    -1.1840 h1         1 EAL       0.043700
     20 H101         5.0860    -0.9090     0.9210 hc         1 EAL       0.051367
     21 H102         6.5310    -1.1880    -0.0600 hc         1 EAL       0.051367
     22 H103         6.6420    -0.2380     1.4290 hc         1 EAL       0.051367
     23 N1           6.2430     1.9600     0.5170 n7         1 EAL      -0.784200
     24 C3           8.5620     1.3760     0.9450 c          1 EAL       0.869600
     25 C4           7.6250     2.1640     0.0670 c3         1 EAL       0.048500
     26 O2           8.2440     1.1450     2.2290 o          1 EAL      -0.853800
     27 O3           9.5980     0.9500     0.4940 o          1 EAL      -0.853800
     28 C14          7.9750     3.6510     0.1530 c3         1 EAL      -0.043400
     29 C15          7.0250     4.4510    -0.7380 c3         1 EAL      -0.048100
     30 C16          7.3700     5.9160    -0.6520 ca         1 EAL      -0.046300
     31 C17          8.2850     6.4630    -1.5330 ca         1 EAL      -0.127000
     32 C18          8.6020     7.8060    -1.4550 ca         1 EAL      -0.139000
     33 C19          8.0030     8.6020    -0.4970 ca         1 EAL      -0.161000
     34 C20          7.0870     8.0550     0.3820 ca         1 EAL      -0.139000
     35 C21          6.7670     6.7130     0.3010 ca         1 EAL      -0.127000
     36 H1           6.2360     1.7650     1.4990 hn         1 EAL       0.398800
     37 HB           7.7240     1.8290    -0.9580 h1         1 EAL       0.037700
     38 H141         8.9950     3.8010    -0.1800 hc         1 EAL       0.040200
     39 H142         7.8780     3.9860     1.1780 hc         1 EAL       0.040200
     40 H151         6.0050     4.3010    -0.4050 hc         1 EAL       0.063700
     41 H152         7.1230     4.1170    -1.7630 hc         1 EAL       0.063700
     42 H17          8.7540     5.8380    -2.2840 ha         1 EAL       0.137500
     43 H18          9.3200     8.2350    -2.1440 ha         1 EAL       0.110000
     44 H19          8.2520     9.6550    -0.4340 ha         1 EAL       0.104000
     45 H20          6.6160     8.6800     1.1310 ha         1 EAL       0.110000
     46 H21          6.0490     6.2850     0.9900 ha         1 EAL       0.137500
     47 C1           4.2390     0.9430    -0.4050 c          1 EAL       0.687100
@<TRIPOS>BOND
     1    16    47 2
     2    26    24 1
     3    27    24 1
     4     1     8 1
     5     2     8 1
     6    23    17 1
     7    23    25 1
     8    23    36 1
     9     3    47 1
    10     3     4 1
    11     3     7 1
    12    47    17 1
    13    17    18 1
    14    17    19 1
    15    24    25 1
    16    25    28 1
    17    25    37 1
    18     4     5 1
    19     4     8 1
    20     4     9 1
    21     5     6 1
    22     5    10 1
    23     5    11 1
    24     6     7 1
    25     6    12 1
    26     6    13 1
    27     7    14 1
    28     7    15 1
    29    18    20 1
    30    18    21 1
    31    18    22 1
    32    28    29 1
    33    28    38 1
    34    28    39 1
    35    29    30 1
    36    29    40 1
    37    29    41 1
    38    30    31 ar
    39    30    35 ar
    40    31    32 ar
    41    31    42 1
    42    32    33 ar
    43    32    43 1
    44    33    34 ar
    45    33    44 1
    46    34    35 ar
    47    34    45 1
    48    35    46 1
@<TRIPOS>SUBSTRUCTURE
     1 EAL         1 TEMP              0 ****  ****    0 ROOT
