@<TRIPOS>MOLECULE
molecule
   52    55     1     0     0
SMALL
bcc


@<TRIPOS>ATOM
      1 Cl           0.0000     0.0000     0.0000 cl         1 EAM      -0.108400
      2 C10          1.7360     0.0000     0.0000 ca         1 EAM       0.042400
      3 C9           2.4250     0.0000     1.2010 ca         1 EAM      -0.133000
      4 C8           3.8050    -0.0000     1.2080 ca         1 EAM      -0.085000
      5 C11          2.4260    -0.0070    -1.2000 ca         1 EAM      -0.133000
      6 C12          3.8050    -0.0080    -1.2060 ca         1 EAM      -0.085000
      7 C7           4.5050    -0.0020     0.0000 ca         1 EAM      -0.144900
      8 C6           5.9860    -0.0010     0.0010 ce         1 EAM       0.514500
      9 N2           6.5510    -0.4830    -1.0510 n2         1 EAM      -0.541900
     10 C13          6.6300     0.5520     1.1970 ca         1 EAM      -0.142900
     11 C19          7.7480    -0.0300     1.7990 ca         1 EAM      -0.024200
     12 C18          8.2770     0.5220     2.9610 ca         1 EAM      -0.106000
     13 C17          7.7270     1.6600     3.5100 ca         1 EAM      -0.196000
     14 C15          6.6330     2.2630     2.9030 ca         1 EAM       0.138100
     15 O2           6.0990     3.3950     3.4360 os         1 EAM      -0.321900
     16 C16          6.7140     3.9070     4.6210 c3         1 EAM       0.126700
     17 C14          6.0870     1.7170     1.7590 ca         1 EAM      -0.129000
     18 N3           8.3880    -1.1370     1.2410 na         1 EAM      -0.241800
     19 C22          8.5640    -1.3770    -0.0830 cc         1 EAM       0.340800
     20 N5           9.2570    -2.4720    -0.1940 nd         1 EAM      -0.330000
     21 N4           9.4980    -2.9520     0.9770 nd         1 EAM      -0.347000
     22 C20          8.9780    -2.1750     1.8910 cc         1 EAM       0.366800
     23 C21          9.0220    -2.3900     3.3820 c3         1 EAM      -0.106400
     24 C5           8.0100    -0.5200    -1.2000 c3         1 EAM       0.137200
     25 C4           8.5780     0.8970    -1.0940 c3         1 EAM      -0.187400
     26 C3           8.0840     1.7240    -2.2540 c          1 EAM       0.655100
     27 O1           7.3500     1.2280    -3.0830 o          1 EAM      -0.591100
     28 N1           8.4580     3.0130    -2.3700 ns         1 EAM      -0.588900
     29 C2           7.9780     3.8170    -3.4970 c3         1 EAM       0.110000
     30 C1           8.5460     5.2340    -3.3920 c3         1 EAM      -0.112100
     31 H9           1.8800     0.0010     2.1370 ha         1 EAM       0.147000
     32 H8           4.3430     0.0020     2.1480 ha         1 EAM       0.156500
     33 H11          1.8820    -0.0120    -2.1370 ha         1 EAM       0.147000
     34 H12          4.3430    -0.0110    -2.1460 ha         1 EAM       0.156500
     35 H18          9.1300     0.0540     3.4370 ha         1 EAM       0.150000
     36 H17          8.1780     2.1110     4.3850 ha         1 EAM       0.147000
     37 H16          6.6690     3.1580     5.4030 h1         1 EAM       0.046033
     38 H16A         6.1890     4.7980     4.9430 h1         1 EAM       0.046033
     39 H16B         7.7480     4.1520     4.4140 h1         1 EAM       0.046033
     40 H14          5.2330     2.1930     1.2910 ha         1 EAM       0.169000
     41 H21          9.2420    -3.4300     3.5910 hc         1 EAM       0.059367
     42 H21A         9.7930    -1.7640     3.8150 hc         1 EAM       0.059367
     43 H21B         8.0620    -2.1310     3.8130 hc         1 EAM       0.059367
     44 H5           8.2690    -0.9560    -2.1580 h1         1 EAM       0.133700
     45 H4           8.2540     1.3480    -0.1650 hc         1 EAM       0.074200
     46 H4A          9.6610     0.8540    -1.1170 hc         1 EAM       0.074200
     47 HN1          9.0890     3.4130    -1.7040 hn         1 EAM       0.311500
     48 H2           6.8960     3.8590    -3.4750 h1         1 EAM       0.054700
     49 H2A          8.3030     3.3650    -4.4270 h1         1 EAM       0.054700
     50 H1           8.2280     5.6820    -2.4580 hc         1 EAM       0.042367
     51 H1A          8.1850     5.8300    -4.2210 hc         1 EAM       0.042367
     52 H1B          9.6280     5.1920    -3.4210 hc         1 EAM       0.042367
@<TRIPOS>BOND
     1     1     2 1
     2     2     3 ar
     3     2     5 ar
     4     3     4 ar
     5     4     7 ar
     6     5     6 ar
     7     6     7 ar
     8     7     8 1
     9     8     9 2
    10     8    10 1
    11     9    24 1
    12    10    11 ar
    13    10    17 ar
    14    11    12 ar
    15    11    18 1
    16    12    13 ar
    17    13    14 ar
    18    14    15 1
    19    14    17 ar
    20    15    16 1
    21    18    19 1
    22    18    22 1
    23    19    20 2
    24    19    24 1
    25    20    21 1
    26    21    22 2
    27    22    23 1
    28    24    25 1
    29    25    26 1
    30    26    27 2
    31    26    28 1
    32    28    29 1
    33    29    30 1
    34     3    31 1
    35     4    32 1
    36     5    33 1
    37     6    34 1
    38    12    35 1
    39    13    36 1
    40    16    37 1
    41    16    38 1
    42    16    39 1
    43    17    40 1
    44    23    41 1
    45    23    42 1
    46    23    43 1
    47    24    44 1
    48    25    45 1
    49    25    46 1
    50    28    47 1
    51    29    48 1
    52    29    49 1
    53    30    50 1
    54    30    51 1
    55    30    52 1
@<TRIPOS>SUBSTRUCTURE
     1 EAM         1 TEMP              0 ****  ****    0 ROOT
