@<TRIPOS>MOLECULE
EAM
   52    55     1     0     0
SMALL
bcc


@<TRIPOS>ATOM
      1 Cl           0.0000     0.0000     0.0000 cl         1 EAM      -0.028400
      2 C10          1.7360     0.0000     0.0000 ca         1 EAM      -0.022600
      3 C9           2.4250     0.0000     1.2010 ca         1 EAM      -0.108500
      4 C8           3.8050    -0.0000     1.2080 ca         1 EAM      -0.064000
      5 C11          2.4260    -0.0070    -1.2000 ca         1 EAM      -0.108500
      6 C12          3.8050    -0.0080    -1.2060 ca         1 EAM      -0.064000
      7 C7           4.5050    -0.0020     0.0000 ca         1 EAM      -0.152900
      8 C6           5.9860    -0.0010     0.0010 ce         1 EAM       0.461500
      9 N2           6.5510    -0.4830    -1.0510 n2         1 EAM      -0.455900
     10 C13          6.6300     0.5520     1.1970 ca         1 EAM      -0.097900
     11 C19          7.7480    -0.0300     1.7990 ca         1 EAM      -0.209200
     12 C18          8.2770     0.5220     2.9610 ca         1 EAM      -0.067000
     13 C17          7.7270     1.6600     3.5100 ca         1 EAM      -0.188000
     14 C15          6.6330     2.2630     2.9030 ca         1 EAM       0.161100
     15 O2           6.0990     3.3950     3.4360 os         1 EAM      -0.300900
     16 C16          6.7140     3.9070     4.6210 c3         1 EAM       0.243700
     17 C14          6.0870     1.7170     1.7590 ca         1 EAM      -0.122000
     18 N3           8.3880    -1.1370     1.2410 na         1 EAM       0.290200
     19 C22          8.5640    -1.3770    -0.0830 cc         1 EAM       0.125800
     20 N5           9.2570    -2.4720    -0.1940 nd         1 EAM      -0.295000
     21 N4           9.4980    -2.9520     0.9770 nd         1 EAM      -0.324000
     22 C20          8.9780    -2.1750     1.8910 cc         1 EAM       0.159800
     23 C21          9.0220    -2.3900     3.3820 c3         1 EAM       0.009600
     24 C5           8.0100    -0.5200    -1.2000 c3         1 EAM       0.156200
     25 C4           8.5780     0.8970    -1.0940 c3         1 EAM      -0.146400
     26 C3           8.0840     1.7240    -2.2540 c          1 EAM       0.569100
     27 O1           7.3500     1.2280    -3.0830 o          1 EAM      -0.628100
     28 N1           8.4580     3.0130    -2.3700 ns         1 EAM      -0.202900
     29 C2           7.9780     3.8170    -3.4970 c3         1 EAM       0.051000
     30 C1           8.5460     5.2340    -3.3920 c3         1 EAM      -0.007100
     31 H9           1.8800     0.0010     2.1370 ha         1 EAM       0.116500
     32 H8           4.3430     0.0020     2.1480 ha         1 EAM       0.126000
     33 H11          1.8820    -0.0120    -2.1370 ha         1 EAM       0.116500
     34 H12          4.3430    -0.0110    -2.1460 ha         1 EAM       0.126000
     35 H18          9.1300     0.0540     3.4370 ha         1 EAM       0.128000
     36 H17          8.1780     2.1110     4.3850 ha         1 EAM       0.130000
     37 H16          6.6690     3.1580     5.4030 h1         1 EAM       0.001367
     38 H16A         6.1890     4.7980     4.9430 h1         1 EAM       0.001367
     39 H16B         7.7480     4.1520     4.4140 h1         1 EAM       0.001367
     40 H14          5.2330     2.1930     1.2910 ha         1 EAM       0.143000
     41 H21          9.2420    -3.4300     3.5910 hc         1 EAM       0.017033
     42 H21A         9.7930    -1.7640     3.8150 hc         1 EAM       0.017033
     43 H21B         8.0620    -2.1310     3.8130 hc         1 EAM       0.017033
     44 H5           8.2690    -0.9560    -2.1580 h1         1 EAM       0.086700
     45 H4           8.2540     1.3480    -0.1650 hc         1 EAM       0.043700
     46 H4A          9.6610     0.8540    -1.1170 hc         1 EAM       0.043700
     47 HN1          9.0890     3.4130    -1.7040 hn         1 EAM       0.172500
     48 H2           6.8960     3.8590    -3.4750 h1         1 EAM       0.026700
     49 H2A          8.3030     3.3650    -4.4270 h1         1 EAM       0.026700
     50 H1           8.2280     5.6820    -2.4580 hc         1 EAM       0.007700
     51 H1A          8.1850     5.8300    -4.2210 hc         1 EAM       0.007700
     52 H1B          9.6280     5.1920    -3.4210 hc         1 EAM       0.007700
@<TRIPOS>BOND
     1     1     2 1   
     2     2     3 ar  
     3     2     5 ar  
     4     3     4 ar  
     5     3    31 1   
     6     4     7 ar  
     7     4    32 1   
     8     5     6 ar  
     9     5    33 1   
    10     6     7 ar  
    11     6    34 1   
    12     7     8 1   
    13     8     9 2   
    14     8    10 1   
    15     9    24 1   
    16    10    11 ar  
    17    10    17 ar  
    18    11    12 ar  
    19    11    18 1   
    20    12    13 ar  
    21    12    35 1   
    22    13    14 ar  
    23    13    36 1   
    24    14    15 1   
    25    14    17 ar  
    26    15    16 1   
    27    16    37 1   
    28    16    38 1   
    29    16    39 1   
    30    17    40 1   
    31    18    19 1   
    32    18    22 1   
    33    19    20 2   
    34    19    24 1   
    35    20    21 1   
    36    21    22 2   
    37    22    23 1   
    38    23    41 1   
    39    23    42 1   
    40    23    43 1   
    41    24    25 1   
    42    24    44 1   
    43    25    26 1   
    44    25    45 1   
    45    25    46 1   
    46    26    27 2   
    47    26    28 1   
    48    28    29 1   
    49    28    47 1   
    50    29    30 1   
    51    29    48 1   
    52    29    49 1   
    53    30    50 1   
    54    30    51 1   
    55    30    52 1   
@<TRIPOS>SUBSTRUCTURE
     1 EAM         1 TEMP              0 ****  ****    0 ROOT
