@<TRIPOS>MOLECULE
EAP
   12    10     1     0     0
SMALL
bcc


@<TRIPOS>ATOM
      1 O1          0.4930   -0.6010    0.9630 o         1 EAP     -1.165667
      2 O2          2.8750    0.3090    0.9690 o         1 EAP     -1.165667
      3 O3          0.9710    1.7460    0.0900 o         1 EAP     -1.165667
      4 O4          1.3560   -0.8770   -1.3580 oh        1 EAP     -0.346000
      5 P           1.4710    0.4200    0.5150 p3        1 EAP      2.478000
      6 C1          1.7160   -1.1760   -2.6280 c1        1 EAP     -0.214000
      7 C2          1.1750   -2.2720   -3.2500 c2        1 EAP     -0.525000
      8 N3          1.4870   -2.6690   -4.5760 n3        1 EAP     -0.244000
      9 H11         0.7070   -1.5030   -0.9770 ho        1 EAP      0.162000
     10 H21         0.4440   -2.9520   -2.7770 h4        1 EAP      0.051000
     11 HN31        2.4860   -2.8010   -4.6450 hn        1 EAP      0.067000
     12 HN32        1.2900   -1.8970   -5.1970 hn        1 EAP      0.067000
@<TRIPOS>BOND
     1    1    5 1
     2    2    5 1
     3    3    5 1
     4    4    6 1
     5    4    9 1
     6    6    7 1
     7    7    8 1
     8    7   10 1
     9    8   11 1
    10    8   12 1
@<TRIPOS>SUBSTRUCTURE
     1 EAP         1 TEMP              0 ****  ****    0 ROOT
