@<TRIPOS>MOLECULE
EAS
   61    65     1     0     0
SMALL
bcc


@<TRIPOS>ATOM
      1 N1           0.0000     0.0000     0.0000 na         1 EAS       0.403600
      2 N3          -3.3770     0.3030    -7.8760 n3         1 EAS      -0.527600
      3 C4           1.3770     0.0000     0.0000 ca         1 EAS      -0.228200
      4 C5           2.3340     0.0000     1.0100 ca         1 EAS      -0.056000
      5 C6           3.6730     0.0010     0.6870 ca         1 EAS      -0.070000
      6 C7           4.0830     0.0020    -0.6400 ca         1 EAS      -0.034600
      7 C8           3.1530     0.0030    -1.6550 ca         1 EAS      -0.107000
      8 C10          0.3730    -1.4640    -5.6570 c          1 EAS       0.537100
      9 C13         -2.0620     0.8680    -7.5460 c3         1 EAS       0.167300
     10 C15         -4.4120     2.4780    -8.1950 cc         1 EAS      -0.165400
     11 C17         -4.6630     4.0510    -9.8460 ca         1 EAS      -0.230200
     12 C20         -5.9450     2.4180   -11.6920 ca         1 EAS      -0.054600
     13 C21         -5.5770     1.8940   -10.4840 ca         1 EAS      -0.043000
     14 C22         -4.9320     2.7020    -9.5450 ca         1 EAS      -0.073800
     15 C24         -2.4760    -1.9740    -7.9270 c3         1 EAS      -0.031900
     16 N            1.9150    -1.9830    -3.8520 nz         1 EAS       0.037400
     17 C            0.5830    -1.4480    -4.1650 c3         1 EAS      -0.057500
     18 O            1.3270    -1.5260    -6.4030 o          1 EAS      -0.629100
     19 C1           0.4770    -0.0110    -3.6510 c3         1 EAS      -0.037200
     20 C11         -1.0800    -1.4270    -7.6130 c3         1 EAS      -0.015300
     21 C12         -0.9640    -0.0020    -8.1620 c3         1 EAS      -0.031900
     22 C16         -3.8830     3.6400    -7.7800 cd         1 EAS      -0.268100
     23 C18         -5.0470     4.5630   -11.0820 ca         1 EAS      -0.087000
     24 C19         -5.6830     3.7490   -11.9940 ca         1 EAS      -0.077000
     25 C2           0.5650    -0.0080    -2.1450 cc         1 EAS      -0.225400
     26 C23         -3.5310    -1.0470    -7.3190 c3         1 EAS       0.167300
     27 C3          -0.4660    -0.0060    -1.2860 cd         1 EAS      -0.226100
     28 C9           1.7910     0.0010    -1.3440 ca         1 EAS      -0.105800
     29 N2          -0.8760    -1.4110    -6.1620 ns         1 EAS      -0.133900
     30 N4          -4.0200     4.5900    -8.7550 na         1 EAS       0.370600
     31 Cl           5.7760     0.0030    -1.0200 cl         1 EAS       0.017600
     32 Cl1         -6.7480     1.4140   -12.8580 cl         1 EAS      -0.024400
     33 H1          -0.5750     0.0030     0.8190 hn         1 EAS       0.132700
     34 H3           2.0260    -0.0010     2.0480 ha         1 EAS       0.118000
     35 H4           4.4140     0.0000     1.4770 ha         1 EAS       0.131000
     36 H5           3.4750     0.0040    -2.6890 ha         1 EAS       0.100000
     37 H6          -1.9910     1.8720    -7.9460 h1         1 EAS       0.008950
     38 H7          -1.9400     0.8920    -6.4700 h1         1 EAS       0.008950
     39 H8          -5.7850     0.8560   -10.2560 ha         1 EAS       0.114000
     40 H9          -2.5780    -2.9650    -7.5010 hc         1 EAS       0.036450
     41 H10         -2.6120    -2.0200    -9.0000 hc         1 EAS       0.036450
     42 H11          2.0770    -2.8110    -4.3910 hn         1 EAS       0.238467
     43 H12          2.6100    -1.2990    -4.0750 hn         1 EAS       0.238467
     44 H14         -0.1730    -2.0590    -3.6870 hx         1 EAS       0.064700
     45 H15         -0.2940    -0.7330    -3.4130 hc         1 EAS       0.070700
     46 H16         -0.0750     0.7570    -4.1790 hc         1 EAS       0.070700
     47 H17         -0.3330    -2.0560    -8.0820 h1         1 EAS       0.063700
     48 H18         -0.5120    -0.3080    -9.0980 hc         1 EAS       0.036450
     49 H19         -0.1020     0.4100    -7.6520 hc         1 EAS       0.036450
     50 H20         -4.3340     1.3950    -6.3640 h1         1 EAS       0.008200
     51 H21         -5.4140     0.7020    -7.5820 h1         1 EAS       0.008200
     52 H22         -3.4180     3.8020    -6.8150 h4         1 EAS       0.134000
     53 H23         -4.8470     5.6000   -11.3260 ha         1 EAS       0.106000
     54 H24         -5.9800     4.1500   -12.9550 ha         1 EAS       0.118000
     55 H25         -3.4000    -1.0100    -6.2440 h1         1 EAS       0.008950
     56 H26         -4.5190    -1.4230    -7.5550 h1         1 EAS       0.008950
     57 H27         -1.5120    -0.0070    -1.5690 h4         1 EAS       0.148000
     58 H28         -1.6650    -1.4170    -5.5460 hn         1 EAS       0.182500
     59 H29         -3.7040     5.5370    -8.6840 hn         1 EAS       0.117700
     60 HN3          1.9610    -2.2170    -2.8800 hn         1 EAS       0.238467
     61 C14         -4.4580     1.1870    -7.4200 c3         1 EAS       0.255000
@<TRIPOS>BOND
     1     1     3 1   
     2     1    27 1   
     3     1    33 1   
     4     2     9 1   
     5     2    26 1   
     6     2    61 1   
     7     3     4 ar  
     8     3    28 ar  
     9     4     5 ar  
    10     4    34 1   
    11     5     6 ar  
    12     5    35 1   
    13     6     7 ar  
    14     6    31 1   
    15     7    28 ar  
    16     7    36 1   
    17     8    17 1   
    18     8    18 2   
    19     8    29 1   
    20     9    21 1   
    21     9    37 1   
    22     9    38 1   
    23    10    14 1   
    24    10    22 2   
    25    10    61 1   
    26    11    14 ar  
    27    11    23 ar  
    28    11    30 1   
    29    12    13 ar  
    30    12    24 ar  
    31    12    32 1   
    32    13    14 ar  
    33    13    39 1   
    34    15    20 1   
    35    15    26 1   
    36    15    40 1   
    37    15    41 1   
    38    16    17 1   
    39    16    42 1   
    40    16    43 1   
    41    16    60 1   
    42    17    19 1   
    43    17    44 1   
    44    19    25 1   
    45    19    45 1   
    46    19    46 1   
    47    20    21 1   
    48    20    29 1   
    49    20    47 1   
    50    21    48 1   
    51    21    49 1   
    52    22    30 1   
    53    22    52 1   
    54    23    24 ar  
    55    23    53 1   
    56    24    54 1   
    57    25    27 2   
    58    25    28 1   
    59    26    55 1   
    60    26    56 1   
    61    27    57 1   
    62    29    58 1   
    63    30    59 1   
    64    50    61 1   
    65    51    61 1   
@<TRIPOS>SUBSTRUCTURE
     1 EAS         1 TEMP              0 ****  ****    0 ROOT
