@<TRIPOS>MOLECULE
molecule
   61    65     1     0     0
SMALL
bcc


@<TRIPOS>ATOM
      1 N1           0.0000     0.0000     0.0000 na         1 EAS      -0.155400
      2 N3          -3.3770     0.3030    -7.8760 n3         1 EAS      -0.717600
      3 C4           1.3770     0.0000     0.0000 ca         1 EAS      -0.035200
      4 C5           2.3340     0.0000     1.0100 ca         1 EAS      -0.107000
      5 C6           3.6730     0.0010     0.6870 ca         1 EAS      -0.090000
      6 C7           4.0830     0.0020    -0.6400 ca         1 EAS       0.028400
      7 C8           3.1530     0.0030    -1.6550 ca         1 EAS      -0.127000
      8 C10          0.3730    -1.4640    -5.6570 c          1 EAS       0.627100
      9 C13         -2.0620     0.8680    -7.5460 c3         1 EAS       0.179300
     10 C15         -4.4120     2.4780    -8.1950 cc         1 EAS      -0.159400
     11 C17         -4.6630     4.0510    -9.8460 ca         1 EAS      -0.040200
     12 C20         -5.9450     2.4180   -11.6920 ca         1 EAS       0.005400
     13 C21         -5.5770     1.8940   -10.4840 ca         1 EAS      -0.070000
     14 C22         -4.9320     2.7020    -9.5450 ca         1 EAS      -0.081800
     15 C24         -2.4760    -1.9740    -7.9270 c3         1 EAS      -0.086900
     16 N            1.9150    -1.9830    -3.8520 nz         1 EAS      -0.803600
     17 C            0.5830    -1.4480    -4.1650 c3         1 EAS       0.095500
     18 O            1.3270    -1.5260    -6.4030 o          1 EAS      -0.583100
     19 C1           0.4770    -0.0110    -3.6510 c3         1 EAS      -0.096200
     20 C11         -1.0800    -1.4270    -7.6130 c3         1 EAS       0.086700
     21 C12         -0.9640    -0.0020    -8.1620 c3         1 EAS      -0.086900
     22 C16         -3.8830     3.6400    -7.7800 cd         1 EAS      -0.097100
     23 C18         -5.0470     4.5630   -11.0820 ca         1 EAS      -0.132000
     24 C19         -5.6830     3.7490   -11.9940 ca         1 EAS      -0.095000
     25 C2           0.5650    -0.0080    -2.1450 cd         1 EAS      -0.222400
     26 C23         -3.5310    -1.0470    -7.3190 c3         1 EAS       0.179300
     27 C3          -0.4660    -0.0060    -1.2860 cc         1 EAS      -0.056100
     28 C9           1.7910     0.0010    -1.3440 ca         1 EAS      -0.113800
     29 N2          -0.8760    -1.4110    -6.1620 ns         1 EAS      -0.548900
     30 N4          -4.0200     4.5900    -8.7550 na         1 EAS      -0.174400
     31 Cl           5.7760     0.0030    -1.0200 cl         1 EAS      -0.072400
     32 Cl1         -6.7480     1.4140   -12.8580 cl         1 EAS      -0.105400
     33 H1          -0.5750     0.0030     0.8190 hn         1 EAS       0.322700
     34 H3           2.0260    -0.0010     2.0480 ha         1 EAS       0.154000
     35 H4           4.4140     0.0000     1.4770 ha         1 EAS       0.168000
     36 H5           3.4750     0.0040    -2.6890 ha         1 EAS       0.126000
     37 H6          -1.9910     1.8720    -7.9460 h1         1 EAS       0.033950
     38 H7          -1.9400     0.8920    -6.4700 h1         1 EAS       0.033950
     39 H8          -5.7850     0.8560   -10.2560 ha         1 EAS       0.146000
     40 H9          -2.5780    -2.9650    -7.5010 hc         1 EAS       0.067700
     41 H10         -2.6120    -2.0200    -9.0000 hc         1 EAS       0.067700
     42 H11          2.0770    -2.8110    -4.3910 hn         1 EAS       0.461800
     43 H12          2.6100    -1.2990    -4.0750 hn         1 EAS       0.461800
     44 H14         -0.1730    -2.0590    -3.6870 hx         1 EAS       0.087700
     45 H15         -0.2940    -0.7330    -3.4130 hc         1 EAS       0.104200
     46 H16         -0.0750     0.7570    -4.1790 hc         1 EAS       0.104200
     47 H17         -0.3330    -2.0560    -8.0820 h1         1 EAS       0.085700
     48 H18         -0.5120    -0.3080    -9.0980 hc         1 EAS       0.067700
     49 H19         -0.1020     0.4100    -7.6520 hc         1 EAS       0.067700
     50 H20         -4.3340     1.3950    -6.3640 h1         1 EAS       0.038700
     51 H21         -5.4140     0.7020    -7.5820 h1         1 EAS       0.038700
     52 H22         -3.4180     3.8020    -6.8150 h4         1 EAS       0.159000
     53 H23         -4.8470     5.6000   -11.3260 ha         1 EAS       0.137000
     54 H24         -5.9800     4.1500   -12.9550 ha         1 EAS       0.151000
     55 H25         -3.4000    -1.0100    -6.2440 h1         1 EAS       0.033950
     56 H26         -4.5190    -1.4230    -7.5550 h1         1 EAS       0.033950
     57 H27         -1.5120    -0.0070    -1.5690 h4         1 EAS       0.177000
     58 H28         -1.6650    -1.4170    -5.5460 hn         1 EAS       0.320500
     59 H29         -3.7040     5.5370    -8.6840 hn         1 EAS       0.302700
     60 HN3          1.9610    -2.2170    -2.8800 hn         1 EAS       0.461800
     61 C14         -4.4580     1.1870    -7.4200 c3         1 EAS       0.242000
@<TRIPOS>BOND
     1    27     1 1
     2    27    25 2
     3     1     3 1
     4    21     9 1
     5    21    20 1
     6    25    19 1
     7    25    28 1
     8     3     4 ar
     9     3    28 ar
    10     9     2 1
    11    18     8 2
    12    19    17 1
    13     4     5 ar
    14    28     7 ar
    15    20    29 1
    16    20    15 1
    17     8    29 1
    18     8    17 1
    19     2    61 1
    20     2    26 1
    21    17    16 1
    22    61    10 1
    23     5     6 ar
    24    15    26 1
    25     7     6 ar
    26    22    10 2
    27    22    30 1
    28    10    14 1
    29     6    31 1
    30    30    11 1
    31    14    11 ar
    32    14    13 ar
    33    11    23 ar
    34    13    12 ar
    35    23    24 ar
    36    12    24 ar
    37    12    32 1
    38     1    33 1
    39     4    34 1
    40     5    35 1
    41     7    36 1
    42     9    37 1
    43     9    38 1
    44    13    39 1
    45    15    40 1
    46    15    41 1
    47    16    42 1
    48    16    43 1
    49    17    44 1
    50    19    45 1
    51    19    46 1
    52    20    47 1
    53    21    48 1
    54    21    49 1
    55    61    50 1
    56    61    51 1
    57    22    52 1
    58    23    53 1
    59    24    54 1
    60    26    55 1
    61    26    56 1
    62    27    57 1
    63    29    58 1
    64    30    59 1
    65    60    16 1
@<TRIPOS>SUBSTRUCTURE
     1 EAS         1 TEMP              0 ****  ****    0 ROOT
