@<TRIPOS>MOLECULE
EAT
   32    34     1     0     0
SMALL
bcc


@<TRIPOS>ATOM
      1 OAD          0.0000     0.0000     0.0000 oh         1 EAT      -0.572800
      2 CAG          1.4290     0.0000     0.0000 c3         1 EAT       0.151100
      3 CAA          1.9770     0.0000     1.4510 c3         1 EAT       0.139100
      4 OAC          1.1480     0.7830     2.3120 oh         1 EAT      -0.567800
      5 CAF          3.3640     0.6640     1.2620 c3         1 EAT       0.113500
      6 CAB          3.8330     1.3000     2.5720 c3         1 EAT       0.000900
      7 NAH          3.1480     1.7010     0.2310 n7         1 EAT      -0.561200
      8 CAE          1.9740     1.3200    -0.5830 c3         1 EAT       0.122200
      9 CAP          2.3840     1.1170    -2.0180 cc         1 EAT       0.210800
     10 NAQ          1.9370     1.8570    -3.0690 na         1 EAT       0.275700
     11 CAM          2.5430     1.3620    -4.2070 ca         1 EAT      -0.278200
     12 CAN          2.4870     1.6940    -5.5540 ca         1 EAT      -0.086000
     13 CAI          3.2400     0.9820    -6.4640 ca         1 EAT      -0.092000
     14 CAJ          4.0500    -0.0630    -6.0420 ca         1 EAT      -0.121000
     15 CAK          4.1160    -0.4040    -4.7210 ca         1 EAT      -0.040000
     16 CAL          3.3630     0.3040    -3.7800 ca         1 EAT       0.063400
     17 NAO          3.2230     0.2130    -2.4330 nd         1 EAT      -0.511100
     18 H1          -0.3140    -0.8290    -0.3200 ho         1 EAT       0.389000
     19 H2           1.8170    -0.8470    -0.5520 h1         1 EAT       0.040700
     20 H3           2.0830    -1.0130     1.8210 h1         1 EAT       0.010700
     21 H4           0.6750     0.2140     2.8970 ho         1 EAT       0.393000
     22 H5           4.0840    -0.0670     0.9130 h1         1 EAT       0.052700
     23 H6           3.8600     0.5470     3.3500 hc         1 EAT       0.011033
     24 H7           3.1470     2.0890     2.8560 hc         1 EAT       0.011033
     25 H8           4.8240     1.7160     2.4370 hc         1 EAT       0.011033
     26 H9           2.9760     2.5820     0.6740 hn         1 EAT       0.261800
     27 H11          1.2160     2.0910    -0.5160 h1         1 EAT       0.034700
     28 H12          1.1990     2.5310    -3.0410 hn         1 EAT       0.126700
     29 H13          1.8570     2.5090    -5.8880 ha         1 EAT       0.099000
     30 H14          3.1990     1.2400    -7.5150 ha         1 EAT       0.102000
     31 H15          4.6360    -0.6130    -6.7690 ha         1 EAT       0.103000
     32 H16          4.7520    -1.2220    -4.4030 ha         1 EAT       0.108000
@<TRIPOS>BOND
     1     1     2 1   
     2     1    18 1   
     3     2     3 1   
     4     2     8 1   
     5     2    19 1   
     6     3     4 1   
     7     3     5 1   
     8     3    20 1   
     9     4    21 1   
    10     5     6 1   
    11     5     7 1   
    12     5    22 1   
    13     6    23 1   
    14     6    24 1   
    15     6    25 1   
    16     7     8 1   
    17     7    26 1   
    18     8     9 1   
    19     8    27 1   
    20     9    10 1   
    21     9    17 2   
    22    10    11 1   
    23    10    28 1   
    24    11    12 ar  
    25    11    16 ar  
    26    12    13 ar  
    27    12    29 1   
    28    13    14 ar  
    29    13    30 1   
    30    14    15 ar  
    31    14    31 1   
    32    15    16 ar  
    33    15    32 1   
    34    16    17 1   
@<TRIPOS>SUBSTRUCTURE
     1 EAT         1 TEMP              0 ****  ****    0 ROOT
