@<TRIPOS>MOLECULE
molecule
   64    68     1     0     0
SMALL
bcc


@<TRIPOS>ATOM
      1 N1           0.0000     0.0000     0.0000 ns         1 EAV      -0.571900
      2 N3           3.9830     6.4070     1.1320 na         1 EAV      -0.172400
      3 C4          -5.1620    -2.1030    -1.1180 ca         1 EAV      -0.135800
      4 C5          -4.1980    -1.5910    -0.1400 cc         1 EAV      -0.254400
      5 C6          -2.6960    -1.6660    -0.2410 c3         1 EAV      -0.006200
      6 C7          -2.1800    -0.4830    -1.0630 c3         1 EAV       0.024500
      7 C8          -0.6730    -0.4890    -1.0610 c          1 EAV       0.631100
      8 C10          1.9760     1.2540    -0.7140 c3         1 EAV      -0.131400
      9 C13          2.4620     4.8380     1.5160 cd         1 EAV      -0.167400
     10 C15          3.0730     6.5420     0.1070 ca         1 EAV      -0.034200
     11 C17          1.9210     7.2820    -1.8580 ca         1 EAV      -0.102000
     12 C20          2.0800     5.5640     0.3020 ca         1 EAV      -0.094800
     13 C21          1.5110     1.2770     2.1440 c3         1 EAV       0.171800
     14 C22          1.9770     0.0000     1.4430 c3         1 EAV      -0.131400
     15 C24         -6.4360    -1.8110    -0.5960 ca         1 EAV      -0.024200
     16 N           -2.6670    -0.5990    -2.4450 nz         1 EAV      -0.790600
     17 O           -0.0660    -0.9310    -2.0120 o          1 EAV      -0.595100
     18 C1          -7.4300    -2.8350    -2.5190 ca         1 EAV      -0.046300
     19 C11          1.5100     2.4960     0.0490 c3         1 EAV       0.171800
     20 C14          3.6060     5.3840     1.9580 cc         1 EAV      -0.058100
     21 C16          2.9790     7.3990    -0.9850 ca         1 EAV      -0.119000
     22 C18          0.9420     6.3160    -1.6600 ca         1 EAV       0.008400
     23 C19          1.0130     5.4650    -0.5930 ca         1 EAV      -0.097000
     24 C2          -6.1710    -3.1160    -3.0320 ca         1 EAV      -0.118000
     25 C23         -4.9050    -1.0450     0.8600 cd         1 EAV      -0.042100
     26 C25         -7.5680    -2.1860    -1.3120 ca         1 EAV      -0.120000
     27 C3          -5.0450    -2.7620    -2.3430 ca         1 EAV      -0.133000
     28 C9           1.4650     0.0000     0.0000 c3         1 EAV       0.148700
     29 N2           2.0260     2.4490     1.4250 n3         1 EAV      -0.711600
     30 N4          -6.2440    -1.1660     0.6060 na         1 EAV      -0.161400
     31 Cl          -0.3830     6.1900    -2.7760 cl         1 EAV      -0.125400
     32 H1          -0.5000     0.3130     0.8080 hn         1 EAV       0.326500
     33 H2           4.8020     6.9700     1.2510 hn         1 EAV       0.307700
     34 H3          -2.4120    -2.5930    -0.7240 hc         1 EAV       0.089700
     35 H4          -2.2650    -1.6310     0.7530 hc         1 EAV       0.089700
     36 H5          -2.5400     0.4420    -0.6290 hx         1 EAV       0.117700
     37 H6           2.2080     1.2830    -1.7720 hc         1 EAV       0.078200
     38 H7           0.9040     1.0980    -0.7100 hc         1 EAV       0.078200
     39 H8           1.8500     7.9500    -2.7090 ha         1 EAV       0.152000
     40 H9           1.8860     1.2860     3.1610 h1         1 EAV       0.032700
     41 H10          0.4280     1.3080     2.1530 h1         1 EAV       0.032700
     42 H11          3.0590    -0.0360     1.4420 hc         1 EAV       0.078200
     43 H12          1.5820    -0.8630     1.9660 hc         1 EAV       0.078200
     44 H13         -2.1540     0.0270    -3.0330 hn         1 EAV       0.463800
     45 H14         -3.6400    -0.3650    -2.4760 hn         1 EAV       0.463800
     46 H16         -8.4730    -4.1710    -3.8080 hc         1 EAV       0.056700
     47 H17         -9.4920    -3.3550    -2.6150 hc         1 EAV       0.056700
     48 H18         -8.8920    -2.4660    -4.0220 hc         1 EAV       0.056700
     49 H19          1.8860     3.3840    -0.4450 h1         1 EAV       0.032700
     50 H20          0.4280     2.5190     0.0720 h1         1 EAV       0.032700
     51 H23          4.1490     5.0630     2.8390 h4         1 EAV       0.176000
     52 H24          3.7370     8.1560    -1.1480 ha         1 EAV       0.142000
     53 H25          0.2470     4.7130    -0.4450 ha         1 EAV       0.128000
     54 H26         -6.0810    -3.6200    -3.9860 ha         1 EAV       0.147000
     55 H27         -4.4790    -0.5770     1.7400 h4         1 EAV       0.176000
     56 H28         -8.5510    -1.8890    -0.9660 ha         1 EAV       0.148000
     57 H29         -4.0660    -2.9840    -2.7500 ha         1 EAV       0.104000
     58 H30          1.8320    -0.8810    -0.5120 h1         1 EAV       0.097700
     59 H32         -6.9750    -0.8360     1.2040 hn         1 EAV       0.318700
     60 C12          1.7160     3.6900     2.1460 c3         1 EAV       0.242000
     61 C           -8.6580    -3.2350    -3.2960 c3         1 EAV      -0.052800
     62 H21          0.6510     3.8810     2.0950 h1         1 EAV       0.038700
     63 H22          2.0150     3.5900     3.1830 h1         1 EAV       0.038700
     64 HN3         -2.5410    -1.5390    -2.7650 hn         1 EAV       0.463800
@<TRIPOS>BOND
     1    25    30 1
     2    25     4 2
     3    30    15 1
     4    14    13 1
     5    14    28 1
     6    17     7 2
     7    13    29 1
     8     4     5 1
     9     4     3 1
    10     5     6 1
    11    28     1 1
    12    28     8 1
    13     7     1 1
    14     7     6 1
    15    15     3 ar
    16    15    26 ar
    17    29    60 1
    18    29    19 1
    19     3    27 ar
    20     6    16 1
    21    60     9 1
    22     8    19 1
    23    26    18 ar
    24    20     9 2
    25    20     2 1
    26     9    12 1
    27    27    24 ar
    28    18    24 ar
    29    18    61 1
    30     2    10 1
    31    12    10 ar
    32    12    23 ar
    33    10    21 ar
    34    23    22 ar
    35    21    11 ar
    36    22    11 ar
    37    22    31 1
    38     1    32 1
    39     2    33 1
    40     5    34 1
    41     5    35 1
    42     6    36 1
    43     8    37 1
    44     8    38 1
    45    11    39 1
    46    13    40 1
    47    13    41 1
    48    14    42 1
    49    14    43 1
    50    16    44 1
    51    16    45 1
    52    61    46 1
    53    61    47 1
    54    61    48 1
    55    19    49 1
    56    19    50 1
    57    60    62 1
    58    60    63 1
    59    20    51 1
    60    21    52 1
    61    23    53 1
    62    24    54 1
    63    25    55 1
    64    26    56 1
    65    27    57 1
    66    28    58 1
    67    30    59 1
    68    64    16 1
@<TRIPOS>SUBSTRUCTURE
     1 EAV         1 TEMP              0 ****  ****    0 ROOT
