@<TRIPOS>MOLECULE
EAV
   64    68     1     0     0
SMALL
bcc


@<TRIPOS>ATOM
      1 N1           0.0000     0.0000     0.0000 ns         1 EAV      -0.167900
      2 N3           3.9830     6.4070     1.1320 na         1 EAV       0.372600
      3 C4          -5.1620    -2.1030    -1.1180 ca         1 EAV      -0.125800
      4 C5          -4.1980    -1.5910    -0.1400 cc         1 EAV      -0.273400
      5 C6          -2.6960    -1.6660    -0.2410 c3         1 EAV       0.089800
      6 C7          -2.1800    -0.4830    -1.0630 c3         1 EAV      -0.158500
      7 C8          -0.6730    -0.4890    -1.0610 c          1 EAV       0.555100
      8 C10          1.9760     1.2540    -0.7140 c3         1 EAV      -0.083400
      9 C13          2.4620     4.8380     1.5160 cc         1 EAV      -0.170400
     10 C15          3.0730     6.5420     0.1070 ca         1 EAV      -0.225200
     11 C17          1.9210     7.2820    -1.8580 ca         1 EAV      -0.086000
     12 C20          2.0800     5.5640     0.3020 ca         1 EAV      -0.088800
     13 C21          1.5110     1.2770     2.1440 c3         1 EAV       0.156300
     14 C22          1.9770     0.0000     1.4430 c3         1 EAV      -0.083400
     15 C24         -6.4360    -1.8110    -0.5960 ca         1 EAV      -0.214200
     16 N           -2.6670    -0.5990    -2.4450 nz         1 EAV       0.079400
     17 O           -0.0660    -0.9310    -2.0120 o          1 EAV      -0.638100
     18 C1          -7.4300    -2.8350    -2.5190 ca         1 EAV      -0.058300
     19 C11          1.5100     2.4960     0.0490 c3         1 EAV       0.156300
     20 C14          3.6060     5.3840     1.9580 cd         1 EAV      -0.226100
     21 C16          2.9790     7.3990    -0.9850 ca         1 EAV      -0.071000
     22 C18          0.9420     6.3160    -1.6600 ca         1 EAV      -0.045600
     23 C19          1.0130     5.4650    -0.5930 ca         1 EAV      -0.076000
     24 C2          -6.1710    -3.1160    -3.0320 ca         1 EAV      -0.080000
     25 C23         -4.9050    -1.0450     0.8600 cd         1 EAV      -0.204100
     26 C25         -7.5680    -2.1860    -1.3120 ca         1 EAV      -0.073000
     27 C3          -5.0450    -2.7620    -2.3430 ca         1 EAV      -0.110000
     28 C9           1.4650     0.0000     0.0000 c3         1 EAV       0.073700
     29 N2           2.0260     2.4490     1.4250 n3         1 EAV      -0.521600
     30 N4          -6.2440    -1.1660     0.6060 na         1 EAV       0.392600
     31 Cl          -0.3830     6.1900    -2.7760 cl         1 EAV      -0.050400
     32 H1          -0.5000     0.3130     0.8080 hn         1 EAV       0.194500
     33 H2           4.8020     6.9700     1.2510 hn         1 EAV       0.121700
     34 H3          -2.4120    -2.5930    -0.7240 hc         1 EAV       0.049700
     35 H4          -2.2650    -1.6310     0.7530 hc         1 EAV       0.049700
     36 H5          -2.5400     0.4420    -0.6290 hx         1 EAV       0.091700
     37 H6           2.2080     1.2830    -1.7720 hc         1 EAV       0.042700
     38 H7           0.9040     1.0980    -0.7100 hc         1 EAV       0.042700
     39 H8           1.8500     7.9500    -2.7090 ha         1 EAV       0.119000
     40 H9           1.8860     1.2860     3.1610 h1         1 EAV       0.010450
     41 H10          0.4280     1.3080     2.1530 h1         1 EAV       0.010450
     42 H11          3.0590    -0.0360     1.4420 hc         1 EAV       0.042700
     43 H12          1.5820    -0.8630     1.9660 hc         1 EAV       0.042700
     44 H13         -2.1540     0.0270    -3.0330 hn         1 EAV       0.234467
     45 H14         -3.6400    -0.3650    -2.4760 hn         1 EAV       0.234467
     46 H16         -8.4730    -4.1710    -3.8080 hc         1 EAV       0.017700
     47 H17         -9.4920    -3.3550    -2.6150 hc         1 EAV       0.017700
     48 H18         -8.8920    -2.4660    -4.0220 hc         1 EAV       0.017700
     49 H19          1.8860     3.3840    -0.4450 h1         1 EAV       0.010450
     50 H20          0.4280     2.5190     0.0720 h1         1 EAV       0.010450
     51 H23          4.1490     5.0630     2.8390 h4         1 EAV       0.147000
     52 H24          3.7370     8.1560    -1.1480 ha         1 EAV       0.109000
     53 H25          0.2470     4.7130    -0.4450 ha         1 EAV       0.103000
     54 H26         -6.0810    -3.6200    -3.9860 ha         1 EAV       0.118000
     55 H27         -4.4790    -0.5770     1.7400 h4         1 EAV       0.147000
     56 H28         -8.5510    -1.8890    -0.9660 ha         1 EAV       0.119000
     57 H29         -4.0660    -2.9840    -2.7500 ha         1 EAV       0.082000
     58 H30          1.8320    -0.8810    -0.5120 h1         1 EAV       0.066700
     59 H32         -6.9750    -0.8360     1.2040 hn         1 EAV       0.131700
     60 C12          1.7160     3.6900     2.1460 c3         1 EAV       0.254000
     61 C           -8.6580    -3.2350    -3.2960 c3         1 EAV       0.059200
     62 H21          0.6510     3.8810     2.0950 h1         1 EAV       0.008200
     63 H22          2.0150     3.5900     3.1830 h1         1 EAV       0.008200
     64 HN3         -2.5410    -1.5390    -2.7650 hn         1 EAV       0.234467
@<TRIPOS>BOND
     1     1     7 1   
     2     1    28 1   
     3     1    32 1   
     4     2    10 1   
     5     2    20 1   
     6     2    33 1   
     7     3     4 1   
     8     3    15 ar  
     9     3    27 ar  
    10     4     5 1   
    11     4    25 2   
    12     5     6 1   
    13     5    34 1   
    14     5    35 1   
    15     6     7 1   
    16     6    16 1   
    17     6    36 1   
    18     7    17 2   
    19     8    19 1   
    20     8    28 1   
    21     8    37 1   
    22     8    38 1   
    23     9    12 1   
    24     9    20 2   
    25     9    60 1   
    26    10    12 ar  
    27    10    21 ar  
    28    11    21 ar  
    29    11    22 ar  
    30    11    39 1   
    31    12    23 ar  
    32    13    14 1   
    33    13    29 1   
    34    13    40 1   
    35    13    41 1   
    36    14    28 1   
    37    14    42 1   
    38    14    43 1   
    39    15    26 ar  
    40    15    30 1   
    41    16    44 1   
    42    16    45 1   
    43    16    64 1   
    44    18    24 ar  
    45    18    26 ar  
    46    18    61 1   
    47    19    29 1   
    48    19    49 1   
    49    19    50 1   
    50    20    51 1   
    51    21    52 1   
    52    22    23 ar  
    53    22    31 1   
    54    23    53 1   
    55    24    27 ar  
    56    24    54 1   
    57    25    30 1   
    58    25    55 1   
    59    26    56 1   
    60    27    57 1   
    61    28    58 1   
    62    29    60 1   
    63    30    59 1   
    64    46    61 1   
    65    47    61 1   
    66    48    61 1   
    67    60    62 1   
    68    60    63 1   
@<TRIPOS>SUBSTRUCTURE
     1 EAV         1 TEMP              0 ****  ****    0 ROOT
