@<TRIPOS>MOLECULE
molecule
   16    15     1     0     0
SMALL
bcc


@<TRIPOS>ATOM
      1 OAB          0.0000     0.0000     0.0000 oh         1 EAX      -0.622800
      2 OAA          3.8190    -0.9670     3.6270 o          1 EAX      -0.833300
      3 CAG          3.9690     0.1260     2.8610 c          1 EAX       0.871600
      4 OAC          4.5090     1.1090     3.3110 o          1 EAX      -0.833300
      5 CAI          3.4650     0.1260     1.4410 c3         1 EAX       0.035100
      6 OAE          3.8430     1.3470     0.8020 oh         1 EAX      -0.619800
      7 CAH          1.9400     0.0000     1.4410 c3         1 EAX       0.178100
      8 OAD          1.5630    -1.2210     2.0810 oh         1 EAX      -0.568800
      9 CAF          1.4290     0.0000     0.0000 c3         1 EAX       0.104400
     10 H1          -0.3140     0.0750    -0.8860 ho         1 EAX       0.381000
     11 H3           3.8960    -0.7110     0.9050 h1         1 EAX       0.026700
     12 H5           1.5090     0.8370     1.9780 h1         1 EAX       0.048700
     13 H6           0.7840    -1.0810     2.5930 ho         1 EAX       0.393000
     14 H7           1.7900     0.8840    -0.5110 h1         1 EAX       0.024700
     15 H8           1.7900    -0.8840    -0.5110 h1         1 EAX       0.024700
     16 H4           4.7200     1.2660     0.4650 ho         1 EAX       0.391000
@<TRIPOS>BOND
     1     4     3 1
     2     8     7 1
     3     2     3 1
     4     7     9 1
     5     7     5 1
     6     3     5 1
     7     9     1 1
     8     5     6 1
     9     1    10 1
    10     5    11 1
    11     6    16 1
    12     7    12 1
    13     8    13 1
    14     9    14 1
    15     9    15 1
@<TRIPOS>SUBSTRUCTURE
     1 EAX         1 TEMP              0 ****  ****    0 ROOT
