@<TRIPOS>MOLECULE
EAX
   16    15     1     0     0
SMALL
bcc


@<TRIPOS>ATOM
      1 OAB         0.0350    0.2280   -0.3310 oh        1 EAX     -0.630800
      2 OAA         3.3940   -0.7740    3.6610 o         1 EAX     -0.830300
      3 CAG         3.8590    0.0760    2.8500 c         1 EAX      0.892600
      4 OAC         4.6610    1.0030    3.1500 o         1 EAX     -0.830300
      5 CAI         3.4150   -0.0150    1.3680 c3        1 EAX     -0.015900
      6 OAE         4.0030    1.0010    0.5760 oh        1 EAX     -0.639800
      7 CAH         1.8870    0.0840    1.2590 c3        1 EAX      0.114100
      8 OAD         1.2440   -1.0440    1.8340 oh        1 EAX     -0.662800
      9 CAF         1.4430    0.1270   -0.2050 c3        1 EAX      0.134400
     10 H1         -0.3450   -0.3970    0.2990 ho        1 EAX      0.410000
     11 H3          3.7530   -0.9980    0.9390 h1        1 EAX      0.045700
     12 H5          1.5300    1.0110    1.7890 h1        1 EAX      0.038700
     13 H6          1.7130   -1.2510    2.6630 ho        1 EAX      0.458000
     14 H7          1.7970   -0.7950   -0.7380 h1        1 EAX      0.043200
     15 H8          1.8600    1.0410   -0.7020 h1        1 EAX      0.043200
     16 H4          4.4660    1.6010    1.1840 ho        1 EAX      0.428000
@<TRIPOS>BOND
     1    1    9 1   
     2    1   10 1   
     3    2    3 1   
     4    3    4 1   
     5    3    5 1   
     6    5    6 1   
     7    5    7 1   
     8    5   11 1   
     9    6   16 1   
    10    7    8 1   
    11    7    9 1   
    12    7   12 1   
    13    8   13 1   
    14    9   14 1   
    15    9   15 1   
@<TRIPOS>SUBSTRUCTURE
     1 EAX         1 TEMP              0 ****  ****    0 ROOT
