@<TRIPOS>MOLECULE
EAZ
   49    51     1     0     0
SMALL
bcc


@<TRIPOS>ATOM
      1 C1           0.0000     0.0000     0.0000 cp         1 EAZ      -0.058300
      2 C2           1.3940     0.0000     0.0000 ca         1 EAZ       0.369200
      3 C11         -2.1600     0.0070    -1.2490 ca         1 EAZ      -0.080000
      4 C12         -2.2480     0.0060    -3.6420 ca         1 EAZ       0.010000
      5 C13         -0.7770     0.0180    -3.6830 ca         1 EAZ      -0.213000
      6 C14         -0.4240     0.0320    -5.0210 cc         1 EAZ      -0.242300
      7 C17          0.9810     0.0480    -5.5670 c3         1 EAZ       0.094100
      8 C18          0.3060    -0.0000     4.7570 c3         1 EAZ       0.191400
      9 C19         -0.5580    -0.0010     6.0200 c3         1 EAZ      -0.084500
     10 C20          0.3400     0.1240     7.2520 c3         1 EAZ      -0.039400
     11 C21         -0.5260     0.2050     8.5100 c3         1 EAZ      -0.065700
     12 C22          0.3700     0.1830     9.7490 c3         1 EAZ       0.007900
     13 C23         -1.3360     1.5030     8.4890 c3         1 EAZ       0.007900
     14 N3           2.0660     0.0000     1.1320 nb         1 EAZ      -0.517000
     15 C4           1.4600    -0.0000     2.3040 ca         1 EAZ       0.292200
     16 C5           0.0750     0.0000     2.3900 ca         1 EAZ       0.003800
     17 C6          -0.6770     0.0010     1.2220 ca         1 EAZ      -0.114000
     18 O7          -0.5380    -0.0000     3.6040 os         1 EAZ      -0.336900
     19 C8          -0.7530     0.0060    -1.2780 cp         1 EAZ      -0.114000
     20 C9          -0.0620     0.0130    -2.4690 ca         1 EAZ       0.020000
     21 C10         -2.8950     0.0060    -2.3850 ca         1 EAZ      -0.067000
     22 N15         -1.5520     0.0300    -5.7440 na         1 EAZ       0.574800
     23 N16         -2.6640     0.0130    -4.8950 nc         1 EAZ      -0.434400
     24 N24         -1.3180    -1.2560     6.0940 nz         1 EAZ       0.060400
     25 H1           1.9300    -0.0000    -0.9410 h4         1 EAZ       0.002100
     26 H2          -2.6680     0.0070    -0.2930 ha         1 EAZ       0.099000
     27 H3           1.5050    -0.8430    -5.2420 hc         1 EAZ       0.017033
     28 H4           0.9470     0.0720    -6.6500 hc         1 EAZ       0.017033
     29 H5           1.5000     0.9260    -5.2020 hc         1 EAZ       0.017033
     30 H6           0.9310     0.8840     4.7470 h1         1 EAZ       0.039700
     31 H7           0.9310    -0.8850     4.7460 h1         1 EAZ       0.039700
     32 H8          -1.2450     0.8350     5.9880 hx         1 EAZ       0.108700
     33 H9           0.9890    -0.7420     7.3160 hc         1 EAZ       0.056200
     34 H10          0.9430     1.0210     7.1700 hc         1 EAZ       0.056200
     35 H11         -1.2020    -0.6420     8.5380 hc         1 EAZ      -0.003300
     36 H12         -0.2450     0.2270    10.6400 hc         1 EAZ       0.018200
     37 H13          0.9530    -0.7300     9.7570 hc         1 EAZ       0.018200
     38 H14          1.0370     1.0370     9.7270 hc         1 EAZ       0.018200
     39 H15         -1.7150     1.7080     9.4830 hc         1 EAZ       0.018200
     40 H16         -0.7000     2.3200     8.1700 hc         1 EAZ       0.018200
     41 H17         -2.1650     1.4010     7.8000 hc         1 EAZ       0.018200
     42 H18          2.0520    -0.0000     3.2110 h4         1 EAZ      -0.018900
     43 H19         -1.7600     0.0010     1.2580 ha         1 EAZ       0.132000
     44 H20          1.0120    -0.1320    -2.4730 ha         1 EAZ       0.107000
     45 H21         -3.9770     0.0070    -2.3320 ha         1 EAZ       0.116000
     46 H22         -1.5930     0.0390    -6.7440 hn         1 EAZ       0.146700
     47 H23         -2.2940    -1.0500     6.1700 hn         1 EAZ       0.231467
     48 H24         -1.0240    -1.7780     6.8950 hn         1 EAZ       0.231467
     49 H243        -1.1540    -1.7940     5.2660 hn         1 EAZ       0.231467
@<TRIPOS>BOND
     1     1     2 ar  
     2     1    17 ar  
     3     1    19 1   
     4     2    14 ar  
     5     2    25 1   
     6     3    19 ar  
     7     3    21 ar  
     8     3    26 1   
     9     4     5 ar  
    10     4    21 ar  
    11     4    23 2   
    12     5     6 2   
    13     5    20 ar  
    14     6     7 1   
    15     6    22 1   
    16     7    27 1   
    17     7    28 1   
    18     7    29 1   
    19     8     9 1   
    20     8    18 1   
    21     8    30 1   
    22     8    31 1   
    23     9    10 1   
    24     9    24 1   
    25     9    32 1   
    26    10    11 1   
    27    10    33 1   
    28    10    34 1   
    29    11    12 1   
    30    11    13 1   
    31    11    35 1   
    32    12    36 1   
    33    12    37 1   
    34    12    38 1   
    35    13    39 1   
    36    13    40 1   
    37    13    41 1   
    38    14    15 ar  
    39    15    16 ar  
    40    15    42 1   
    41    16    17 ar  
    42    16    18 1   
    43    17    43 1   
    44    19    20 ar  
    45    20    44 1   
    46    21    45 1   
    47    22    23 1   
    48    22    46 1   
    49    24    47 1   
    50    24    48 1   
    51    24    49 1   
@<TRIPOS>SUBSTRUCTURE
     1 EAZ         1 TEMP              0 ****  ****    0 ROOT
