@<TRIPOS>MOLECULE
molecule
   49    51     1     0     0
SMALL
bcc


@<TRIPOS>ATOM
      1 C1           0.0000     0.0000     0.0000 cp         1 EAZ      -0.080300
      2 C2           1.3940     0.0000     0.0000 ca         1 EAZ       0.400200
      3 C11         -2.1600     0.0070    -1.2490 ca         1 EAZ      -0.098000
      4 C12         -2.2480     0.0060    -3.6420 ca         1 EAZ      -0.026000
      5 C13         -0.7770     0.0180    -3.6830 ca         1 EAZ      -0.210000
      6 C14         -0.4240     0.0320    -5.0210 cc         1 EAZ      -0.039300
      7 C17          0.9810     0.0480    -5.5670 c3         1 EAZ      -0.038900
      8 C18          0.3060    -0.0000     4.7570 c3         1 EAZ       0.113400
      9 C19         -0.5580    -0.0010     6.0200 c3         1 EAZ       0.107500
     10 C20          0.3400     0.1240     7.2520 c3         1 EAZ      -0.108400
     11 C21         -0.5260     0.2050     8.5100 c3         1 EAZ      -0.090700
     12 C22          0.3700     0.1830     9.7490 c3         1 EAZ      -0.091600
     13 C23         -1.3360     1.5030     8.4890 c3         1 EAZ      -0.091600
     14 N3           2.0660     0.0000     1.1320 nb         1 EAZ      -0.638000
     15 C4           1.4600    -0.0000     2.3040 ca         1 EAZ       0.328200
     16 C5           0.0750     0.0000     2.3900 ca         1 EAZ      -0.014200
     17 C6          -0.6770     0.0010     1.2220 ca         1 EAZ      -0.119000
     18 O7          -0.5380    -0.0000     3.6040 os         1 EAZ      -0.361900
     19 C8          -0.7530     0.0060    -1.2780 cp         1 EAZ      -0.108000
     20 C9          -0.0620     0.0130    -2.4690 ca         1 EAZ      -0.010000
     21 C10         -2.8950     0.0060    -2.3850 ca         1 EAZ      -0.093000
     22 N15         -1.5520     0.0300    -5.7440 na         1 EAZ       0.036800
     23 N16         -2.6640     0.0130    -4.8950 nc         1 EAZ      -0.260400
     24 N24         -1.3180    -1.2560     6.0940 nz         1 EAZ      -0.808600
     25 H1           1.9300    -0.0000    -0.9410 h4         1 EAZ       0.042100
     26 H2          -2.6680     0.0070    -0.2930 ha         1 EAZ       0.124000
     27 H3           1.5050    -0.8430    -5.2420 hc         1 EAZ       0.061033
     28 H4           0.9470     0.0720    -6.6500 hc         1 EAZ       0.061033
     29 H5           1.5000     0.9260    -5.2020 hc         1 EAZ       0.061033
     30 H6           0.9310     0.8840     4.7470 h1         1 EAZ       0.076200
     31 H7           0.9310    -0.8850     4.7460 h1         1 EAZ       0.076200
     32 H8          -1.2450     0.8350     5.9880 hx         1 EAZ       0.130700
     33 H9           0.9890    -0.7420     7.3160 hc         1 EAZ       0.087700
     34 H10          0.9430     1.0210     7.1700 hc         1 EAZ       0.087700
     35 H11         -1.2020    -0.6420     8.5380 hc         1 EAZ       0.020700
     36 H12         -0.2450     0.2270    10.6400 hc         1 EAZ       0.052033
     37 H13          0.9530    -0.7300     9.7570 hc         1 EAZ       0.052033
     38 H14          1.0370     1.0370     9.7270 hc         1 EAZ       0.052033
     39 H15         -1.7150     1.7080     9.4830 hc         1 EAZ       0.052033
     40 H16         -0.7000     2.3200     8.1700 hc         1 EAZ       0.052033
     41 H17         -2.1650     1.4010     7.8000 hc         1 EAZ       0.052033
     42 H18          2.0520    -0.0000     3.2110 h4         1 EAZ       0.013100
     43 H19         -1.7600     0.0010     1.2580 ha         1 EAZ       0.156000
     44 H20          1.0120    -0.1320    -2.4730 ha         1 EAZ       0.131000
     45 H21         -3.9770     0.0070    -2.3320 ha         1 EAZ       0.147000
     46 H22         -1.5930     0.0390    -6.7440 hn         1 EAZ       0.340700
     47 H23         -2.2940    -1.0500     6.1700 hn         1 EAZ       0.458467
     48 H24         -1.0240    -1.7780     6.8950 hn         1 EAZ       0.458467
     49 H243        -1.1540    -1.7940     5.2660 hn         1 EAZ       0.458467
@<TRIPOS>BOND
     1    24     9 1
     2     8     9 1
     3     8    18 1
     4     9    10 1
     5    21     3 ar
     6    21     4 ar
     7     3    19 ar
     8    18    16 1
     9    17    16 ar
    10    17     1 ar
    11    16    15 ar
    12     4    23 2
    13     4     5 ar
    14    23    22 1
    15    19     1 1
    16    19    20 ar
    17     1     2 ar
    18    15    14 ar
    19     2    14 ar
    20     5    20 ar
    21     5     6 2
    22    22     6 1
    23     6     7 1
    24    10    11 1
    25    11    13 1
    26    11    12 1
    27     2    25 1
    28     3    26 1
    29     7    27 1
    30     7    28 1
    31     7    29 1
    32     8    30 1
    33     8    31 1
    34     9    32 1
    35    10    33 1
    36    10    34 1
    37    11    35 1
    38    12    36 1
    39    12    37 1
    40    12    38 1
    41    13    39 1
    42    13    40 1
    43    13    41 1
    44    15    42 1
    45    17    43 1
    46    20    44 1
    47    21    45 1
    48    22    46 1
    49    24    47 1
    50    24    48 1
    51    49    24 1
@<TRIPOS>SUBSTRUCTURE
     1 EAZ         1 TEMP              0 ****  ****    0 ROOT
