@<TRIPOS>MOLECULE
molecule
   41    44     1     0     0
SMALL
bcc


@<TRIPOS>ATOM
      1 CAO          0.0000     0.0000     0.0000 c3         1 EB0      -0.116100
      2 CAN          1.5300     0.0000     0.0000 c3         1 EB0       0.053300
      3 NAK          2.0190     0.0000     1.3810 n          1 EB0      -0.162300
      4 CAL          2.2780    -1.1150     2.1130 c          1 EB0       0.321800
      5 OAM          2.1460    -2.2640     1.7360 o          1 EB0      -0.307000
      6 CAJ          2.7460    -0.6900     3.4370 ca         1 EB0      -0.131000
      7 CAI          3.1630    -1.2550     4.6290 ca         1 EB0      -0.036000
      8 CAH          3.5340    -0.4320     5.6920 ca         1 EB0      -0.119000
      9 CAG          3.5100     0.9360     5.6240 ca         1 EB0      -0.103000
     10 CAD          3.0910     1.5500     4.4300 ca         1 EB0       0.069000
     11 CAE          2.7250     0.7110     3.3770 ca         1 EB0      -0.120000
     12 CAF          2.2880     1.1400     2.1270 ca         1 EB0       0.089800
     13 CAA          2.2220     2.5090     1.9430 ca         1 EB0      -0.182000
     14 CAB          2.5840     3.3700     2.9780 ca         1 EB0       0.032000
     15 CAC          3.0100     2.9330     4.2030 ca         1 EB0      -0.330500
     16 SAP          3.4500     4.0810     5.4660 sy         1 EB0       1.432200
     17 OAQ          4.7100     3.6600     5.9700 o          1 EB0      -0.635300
     18 OAR          3.2210     5.3760     4.9280 o          1 EB0      -0.635300
     19 NAS          2.3640     3.8890     6.7020 nu         1 EB0      -0.772500
     20 CAT          1.0040     4.1240     6.4800 ca         1 EB0       0.120600
     21 CAU          0.0580     3.2220     6.9480 ca         1 EB0      -0.125500
     22 CAV         -1.2870     3.4560     6.7280 ca         1 EB0      -0.152000
     23 CAW         -1.6890     4.5890     6.0420 ca         1 EB0       0.124900
     24 FAZ         -3.0030     4.8160     5.8270 f          1 EB0      -0.139900
     25 CAX         -0.7470     5.4910     5.5750 ca         1 EB0      -0.152000
     26 CAY          0.5980     5.2630     5.7980 ca         1 EB0      -0.125500
     27 H1          -0.3610    -0.6660    -0.7740 hc         1 EB0       0.048033
     28 H2          -0.3610     1.0040    -0.1900 hc         1 EB0       0.048033
     29 H3          -0.3610    -0.3370     0.9640 hc         1 EB0       0.048033
     30 H4           1.8910     0.8840    -0.5110 h1         1 EB0       0.065700
     31 H5           1.8910    -0.8850    -0.5110 h1         1 EB0       0.065700
     32 H6           3.2010    -2.3320     4.7370 ha         1 EB0       0.149000
     33 H7           3.8590    -0.8960     6.6160 ha         1 EB0       0.140000
     34 H8           3.8070     1.5360     6.4760 ha         1 EB0       0.150000
     35 H9           1.8910     2.9120     0.9940 ha         1 EB0       0.142000
     36 H10          2.5260     4.4370     2.8030 ha         1 EB0       0.157000
     37 H11          2.6870     3.6490     7.6180 hn         1 EB0       0.463800
     38 H12          0.3730     2.3350     7.4850 ha         1 EB0       0.162500
     39 H13         -2.0250     2.7530     7.0920 ha         1 EB0       0.150500
     40 H14         -1.0640     6.3780     5.0410 ha         1 EB0       0.150500
     41 H15          1.3340     5.9690     5.4330 ha         1 EB0       0.162500
@<TRIPOS>BOND
     1    24    23 1
     2    25    23 ar
     3    25    26 ar
     4    23    22 ar
     5    26    20 ar
     6    22    21 ar
     7    20    19 1
     8    20    21 ar
     9    19    16 1
    10     8     9 ar
    11     8     7 ar
    12     9    10 ar
    13    16    18 2
    14    16    17 2
    15    16    15 1
    16     7     6 ar
    17    10    15 ar
    18    10    11 ar
    19    15    14 ar
    20     6    11 ar
    21     6     4 1
    22    11    12 ar
    23    14    13 ar
    24     4     5 2
    25     4     3 1
    26    12    13 ar
    27    12     3 1
    28     3     2 1
    29     1     2 1
    30     1    27 1
    31     1    28 1
    32     1    29 1
    33     2    30 1
    34     2    31 1
    35     7    32 1
    36     8    33 1
    37     9    34 1
    38    13    35 1
    39    14    36 1
    40    19    37 1
    41    21    38 1
    42    22    39 1
    43    25    40 1
    44    26    41 1
@<TRIPOS>SUBSTRUCTURE
     1 EB0         1 TEMP              0 ****  ****    0 ROOT
