@<TRIPOS>MOLECULE
EB0
   41    44     1     0     0
SMALL
bcc


@<TRIPOS>ATOM
      1 CAO          0.0000     0.0000     0.0000 c3         1 EB0      -0.016100
      2 CAN          1.5300     0.0000     0.0000 c3         1 EB0      -0.011700
      3 NAK          2.0190     0.0000     1.3810 n          1 EB0       0.224700
      4 CAL          2.2780    -1.1150     2.1130 c          1 EB0       0.248800
      5 OAM          2.1460    -2.2640     1.7360 o          1 EB0      -0.350000
      6 CAJ          2.7460    -0.6900     3.4370 ca         1 EB0      -0.145000
      7 CAI          3.1630    -1.2550     4.6290 ca         1 EB0       0.011000
      8 CAH          3.5340    -0.4320     5.6920 ca         1 EB0      -0.098000
      9 CAG          3.5100     0.9360     5.6240 ca         1 EB0      -0.076000
     10 CAD          3.0910     1.5500     4.4300 ca         1 EB0       0.076000
     11 CAE          2.7250     0.7110     3.3770 ca         1 EB0      -0.136000
     12 CAF          2.2880     1.1400     2.1270 ca         1 EB0      -0.050200
     13 CAA          2.2220     2.5090     1.9430 ca         1 EB0      -0.150000
     14 CAB          2.5840     3.3700     2.9780 ca         1 EB0       0.059000
     15 CAC          3.0100     2.9330     4.2030 ca         1 EB0      -0.170500
     16 SAP          3.4500     4.0810     5.4660 sy         1 EB0       1.048200
     17 OAQ          4.7100     3.6600     5.9700 o          1 EB0      -0.587300
     18 OAR          3.2210     5.3760     4.9280 o          1 EB0      -0.587300
     19 NAS          2.3640     3.8890     6.7020 nu         1 EB0      -0.400500
     20 CAT          1.0040     4.1240     6.4800 ca         1 EB0       0.044600
     21 CAU          0.0580     3.2220     6.9480 ca         1 EB0      -0.114000
     22 CAV         -1.2870     3.4560     6.7280 ca         1 EB0      -0.113000
     23 CAW         -1.6890     4.5890     6.0420 ca         1 EB0       0.088900
     24 FAZ         -3.0030     4.8160     5.8270 f          1 EB0      -0.128900
     25 CAX         -0.7470     5.4910     5.5750 ca         1 EB0      -0.113000
     26 CAY          0.5980     5.2630     5.7980 ca         1 EB0      -0.114000
     27 H1          -0.3610    -0.6660    -0.7740 hc         1 EB0       0.013033
     28 H2          -0.3610     1.0040    -0.1900 hc         1 EB0       0.013033
     29 H3          -0.3610    -0.3370     0.9640 hc         1 EB0       0.013033
     30 H4           1.8910     0.8840    -0.5110 h1         1 EB0       0.034700
     31 H5           1.8910    -0.8850    -0.5110 h1         1 EB0       0.034700
     32 H6           3.2010    -2.3320     4.7370 ha         1 EB0       0.113000
     33 H7           3.8590    -0.8960     6.6160 ha         1 EB0       0.107000
     34 H8           3.8070     1.5360     6.4760 ha         1 EB0       0.128000
     35 H9           1.8910     2.9120     0.9940 ha         1 EB0       0.115000
     36 H10          2.5260     4.4370     2.8030 ha         1 EB0       0.125000
     37 H11          2.6870     3.6490     7.6180 hn         1 EB0       0.347800
     38 H12          0.3730     2.3350     7.4850 ha         1 EB0       0.139000
     39 H13         -2.0250     2.7530     7.0920 ha         1 EB0       0.120000
     40 H14         -1.0640     6.3780     5.0410 ha         1 EB0       0.120000
     41 H15          1.3340     5.9690     5.4330 ha         1 EB0       0.139000
@<TRIPOS>BOND
     1     1     2 1   
     2     1    27 1   
     3     1    28 1   
     4     1    29 1   
     5     2     3 1   
     6     2    30 1   
     7     2    31 1   
     8     3     4 1   
     9     3    12 1   
    10     4     5 2   
    11     4     6 1   
    12     6     7 ar  
    13     6    11 ar  
    14     7     8 ar  
    15     7    32 1   
    16     8     9 ar  
    17     8    33 1   
    18     9    10 ar  
    19     9    34 1   
    20    10    11 ar  
    21    10    15 ar  
    22    11    12 ar  
    23    12    13 ar  
    24    13    14 ar  
    25    13    35 1   
    26    14    15 ar  
    27    14    36 1   
    28    15    16 1   
    29    16    17 2   
    30    16    18 2   
    31    16    19 1   
    32    19    20 1   
    33    19    37 1   
    34    20    21 ar  
    35    20    26 ar  
    36    21    22 ar  
    37    21    38 1   
    38    22    23 ar  
    39    22    39 1   
    40    23    24 1   
    41    23    25 ar  
    42    25    26 ar  
    43    25    40 1   
    44    26    41 1   
@<TRIPOS>SUBSTRUCTURE
     1 EB0         1 TEMP              0 ****  ****    0 ROOT
