@<TRIPOS>MOLECULE
EB1
   79    81     1     0     0
SMALL
bcc


@<TRIPOS>ATOM
      1 O2         -0.7150    0.6810   -0.1740 oh        1 EB1     -0.597800
      2 C1          1.7900    2.4360    0.0850 c3        1 EB1      0.182300
      3 C2          1.6090    1.1480   -0.7140 c3        1 EB1     -0.144400
      4 C3          0.6150    0.2030   -0.0530 c3        1 EB1      0.150100
      5 C4          0.9890   -0.0660    1.4020 c3        1 EB1     -0.075200
      6 C5          1.2500    1.1860    2.1720 ce        1 EB1     -0.093200
      7 C6          0.7070    1.3610    3.3950 cf        1 EB1     -0.110000
      8 C7          0.8810    2.5380    4.2150 cf        1 EB1     -0.156000
      9 C8          0.6550    2.6100    5.5380 c2        1 EB1     -0.074400
     10 C9          0.1840    1.4750    6.3890 c3        1 EB1     -0.046200
     11 C10         2.1370    2.1510    1.5210 ce        1 EB1     -0.097200
     12 C11         0.9340    1.3400    7.7040 c3        1 EB1     -0.072400
     13 C12         1.1550    2.6510    8.4370 c3        1 EB1     -0.067400
     14 C13         1.7690    3.6890    7.5090 c3        1 EB1     -0.041000
     15 C14         0.7840    3.8680    6.3190 c3        1 EB1     -0.037500
     16 C15         1.2340    5.1640    5.6620 c3        1 EB1     -0.073400
     17 C16         1.7240    6.0300    6.8240 c3        1 EB1     -0.079400
     18 C17         1.8290    5.1280    8.0690 c3        1 EB1     -0.050700
     19 C18         3.1360    3.2340    7.0290 c3        1 EB1     -0.083100
     20 C19         3.1680    2.7360    2.1420 c2        1 EB1     -0.173000
     21 C20         3.0540    5.4850    8.9100 c3        1 EB1     -0.029500
     22 C21         3.1170    4.6760   10.1940 c3        1 EB1     -0.087100
     23 C22         3.0080    6.9360    9.2590 c2        1 EB1     -0.156200
     24 C23         3.8760    7.8840    8.8830 ce        1 EB1     -0.140000
     25 C24         5.0190    7.6950    8.0160 ce        1 EB1     -0.105000
     26 C25         6.0440    8.5440    7.8670 c2        1 EB1     -0.156200
     27 C27         6.2560    9.8510    8.5740 c3        1 EB1      0.188000
     28 O1          2.8230    3.2330   -0.4850 oh        1 EB1     -0.597800
     29 C26         7.3710   10.6640    7.8940 c3        1 EB1     -0.104900
     30 C28         6.6090    9.6140   10.0530 c3        1 EB1     -0.104900
     31 O3          5.0270   10.5820    8.5180 oh        1 EB1     -0.594800
     32 C30         7.8830    8.8360   10.2470 c3        1 EB1     -0.091100
     33 C31         6.9960   11.1080    6.5050 c3        1 EB1     -0.091100
     34 HO2        -0.7920    1.4600    0.3910 ho        1 EB1      0.403000
     35 H1          0.8260    3.0270    0.0630 h1        1 EB1      0.038700
     36 H21         2.5990    0.6320   -0.8090 hc        1 EB1      0.060200
     37 H22A        1.2480    1.4010   -1.7440 hc        1 EB1      0.060200
     38 H3          0.5940   -0.7730   -0.6210 h1        1 EB1      0.074700
     39 H41         1.9190   -0.6950    1.4190 hc        1 EB1      0.061200
     40 H42         0.1640   -0.6590    1.8790 hc        1 EB1      0.061200
     41 H6          0.0550    0.5690    3.8060 ha        1 EB1      0.124000
     42 H7          1.2210    3.4420    3.6740 ha        1 EB1      0.134000
     43 H91        -0.9080    1.6440    6.6050 hc        1 EB1      0.047200
     44 H92         0.2670    0.5010    5.8380 hc        1 EB1      0.047200
     45 H111        0.3580    0.6440    8.3710 hc        1 EB1      0.040700
     46 H112        1.9290    0.8600    7.5090 hc        1 EB1      0.040700
     47 H121        1.8230    2.4730    9.3180 hc        1 EB1      0.042200
     48 H122        0.1770    3.0350    8.8300 hc        1 EB1      0.042200
     49 H14        -0.2410    4.0650    6.7600 hc        1 EB1      0.055700
     50 H151        2.0640    4.9810    4.9350 hc        1 EB1      0.045200
     51 H152        0.3960    5.6530    5.1090 hc        1 EB1      0.045200
     52 H161        2.7190    6.4810    6.5820 hc        1 EB1      0.047700
     53 H162        1.0130    6.8690    7.0220 hc        1 EB1      0.047700
     54 H17         0.9170    5.2840    8.7090 hc        1 EB1      0.046700
     55 H181        3.6340    4.0490    6.4490 hc        1 EB1      0.037033
     56 H182        3.7830    2.9630    7.8980 hc        1 EB1      0.037033
     57 H183        3.0420    2.3420    6.3620 hc        1 EB1      0.037033
     58 H191        3.4110    2.5270    3.1920 ha        1 EB1      0.127000
     59 H192        3.8280    3.4480    1.6260 ha        1 EB1      0.127000
     60 H20         3.9820    5.2630    8.3110 hc        1 EB1      0.055700
     61 H211        2.1250    4.6660   10.7060 hc        1 EB1      0.035700
     62 H212        3.8710    5.1180   10.8900 hc        1 EB1      0.035700
     63 H213        3.4180    3.6240    9.9760 hc        1 EB1      0.035700
     64 H22         2.1600    7.2090    9.9110 ha        1 EB1      0.118000
     65 H23         3.7260    8.9220    9.2410 ha        1 EB1      0.146000
     66 H24         5.0240    6.7620    7.4210 ha        1 EB1      0.119000
     67 H25         6.8570    8.2870    7.1670 ha        1 EB1      0.123000
     68 HO1         2.5890    3.3600   -1.4120 ho        1 EB1      0.403000
     69 H261        7.5940   11.5610    8.5290 hc        1 EB1      0.045950
     70 H262        8.3000   10.0380    7.8580 hc        1 EB1      0.045950
     71 H281        5.7510    9.0620   10.5220 hc        1 EB1      0.045950
     72 H282        6.6910   10.6080   10.5650 hc        1 EB1      0.045950
     73 HO3         5.2070   11.4530    8.8920 ho        1 EB1      0.397000
     74 H301        8.0020    8.5590   11.3230 hc        1 EB1      0.037533
     75 H302        7.8680    7.8980    9.6400 hc        1 EB1      0.037533
     76 H303        8.7720    9.4390    9.9410 hc        1 EB1      0.037533
     77 H311        7.8050   11.7430    6.0710 hc        1 EB1      0.037533
     78 H312        6.8380   10.2260    5.8380 hc        1 EB1      0.037533
     79 H313        6.0470   11.6990    6.5270 hc        1 EB1      0.037533
@<TRIPOS>BOND
     1    1    4 1   
     2    1   34 1   
     3    2    3 1   
     4    2   11 1   
     5    2   28 1   
     6    2   35 1   
     7    3    4 1   
     8    3   36 1   
     9    3   37 1   
    10    4    5 1   
    11    4   38 1   
    12    5    6 1   
    13    5   39 1   
    14    5   40 1   
    15    6    7 2   
    16    6   11 1   
    17    7    8 1   
    18    7   41 1   
    19    8    9 2   
    20    8   42 1   
    21    9   10 1   
    22    9   15 1   
    23   10   12 1   
    24   10   43 1   
    25   10   44 1   
    26   11   20 2   
    27   12   13 1   
    28   12   45 1   
    29   12   46 1   
    30   13   14 1   
    31   13   47 1   
    32   13   48 1   
    33   14   15 1   
    34   14   18 1   
    35   14   19 1   
    36   15   16 1   
    37   15   49 1   
    38   16   17 1   
    39   16   50 1   
    40   16   51 1   
    41   17   18 1   
    42   17   52 1   
    43   17   53 1   
    44   18   21 1   
    45   18   54 1   
    46   19   55 1   
    47   19   56 1   
    48   19   57 1   
    49   20   58 1   
    50   20   59 1   
    51   21   22 1   
    52   21   23 1   
    53   21   60 1   
    54   22   61 1   
    55   22   62 1   
    56   22   63 1   
    57   23   24 2   
    58   23   64 1   
    59   24   25 1   
    60   24   65 1   
    61   25   26 2   
    62   25   66 1   
    63   26   27 1   
    64   26   67 1   
    65   27   29 1   
    66   27   30 1   
    67   27   31 1   
    68   28   68 1   
    69   29   33 1   
    70   29   69 1   
    71   29   70 1   
    72   30   32 1   
    73   30   71 1   
    74   30   72 1   
    75   31   73 1   
    76   32   74 1   
    77   32   75 1   
    78   32   76 1   
    79   33   77 1   
    80   33   78 1   
    81   33   79 1   
@<TRIPOS>SUBSTRUCTURE
     1 EB1         1 TEMP              0 ****  ****    0 ROOT
