@<TRIPOS>MOLECULE
molecule
   79    81     1     0     0
SMALL
bcc


@<TRIPOS>ATOM
      1 O2           0.0000     0.0000     0.0000 oh         1 EB1      -0.605800
      2 C1           1.5870     2.5390    -0.0200 c3         1 EB1       0.191300
      3 C2           1.9060     1.2460    -0.8300 c3         1 EB1      -0.092400
      4 C3           1.4180     0.0000     0.0000 c3         1 EB1       0.147100
      5 C4           1.8840     0.0000     1.4950 c3         1 EB1      -0.048200
      6 C5           1.6810     1.3380     2.2110 ce         1 EB1      -0.064200
      7 C6           1.1190     1.2570     3.4440 cf         1 EB1      -0.119000
      8 C7           0.7980     2.3630     4.3520 cf         1 EB1      -0.141000
      9 C8           0.8130     2.3500     5.6960 c2         1 EB1      -0.092400
     10 C9           1.1830     1.1460     6.6330 c3         1 EB1      -0.029200
     11 C10          2.1350     2.5760     1.4100 ce         1 EB1      -0.091200
     12 C11          2.2520     1.5020     7.7050 c3         1 EB1      -0.068400
     13 C12          2.0370     2.8890     8.3800 c3         1 EB1      -0.058400
     14 C13          1.6360     4.0490     7.4110 c3         1 EB1      -0.053000
     15 C14          0.4460     3.6220     6.4710 c3         1 EB1      -0.038500
     16 C15          0.0300     4.9720     5.7430 c3         1 EB1      -0.073400
     17 C16          0.3420     6.0990     6.7500 c3         1 EB1      -0.072400
     18 C17          0.9090     5.3080     7.9920 c3         1 EB1      -0.040700
     19 C18          2.9510     4.3710     6.5850 c3         1 EB1      -0.074100
     20 C19          2.9420     3.5920     1.8650 c2         1 EB1      -0.185000
     21 C20          1.7270     6.1510     9.0710 c3         1 EB1      -0.043500
     22 C21          0.9250     6.9200    10.1560 c3         1 EB1      -0.080100
     23 C22          2.6860     7.1190     8.5030 c2         1 EB1      -0.147200
     24 C23          3.9180     6.9090     8.9500 ce         1 EB1      -0.154000
     25 C24          4.9490     7.7740     8.4730 ce         1 EB1      -0.117000
     26 C25          5.9940     8.0450     9.2300 c2         1 EB1      -0.168200
     27 C27          6.8720     9.2480     9.1380 c3         1 EB1       0.189000
     28 O1           2.0230     3.6560    -0.7420 oh         1 EB1      -0.607800
     29 C26          7.2780     9.9180     7.7790 c3         1 EB1      -0.094400
     30 C28          8.1280     8.7590     9.8160 c3         1 EB1      -0.094400
     31 O3           6.1730    10.2410     9.8870 oh         1 EB1      -0.598800
     32 C30          9.0120     7.7580     8.9150 c3         1 EB1      -0.084100
     33 C31          6.1470    10.5980     7.0340 c3         1 EB1      -0.084100
     34 HO2         -0.3140    -0.7960    -0.3960 ho         1 EB1       0.398000
     35 H1           0.5080     2.6040     0.0560 h1         1 EB1       0.043700
     36 H21          2.9740     1.1760    -0.9950 hc         1 EB1       0.056700
     37 H22A         1.3860     1.2750    -1.7800 hc         1 EB1       0.056700
     38 H3           1.7760    -0.9030    -0.4790 h1         1 EB1       0.029700
     39 H41          1.3280    -0.7620     2.0270 hc         1 EB1       0.051700
     40 H42          2.9380    -0.2490     1.5250 hc         1 EB1       0.051700
     41 H6           0.8680     0.2670     3.8060 ha         1 EB1       0.120000
     42 H7           0.5150     3.2930     3.8730 ha         1 EB1       0.128000
     43 H91          0.2840     0.8130     7.1380 hc         1 EB1       0.044700
     44 H92          1.5630     0.3370     6.0210 hc         1 EB1       0.044700
     45 H111         3.2260     1.4980     7.2310 hc         1 EB1       0.041200
     46 H112         2.2330     0.7390     8.4740 hc         1 EB1       0.041200
     47 H121         1.2580     2.7860     9.1250 hc         1 EB1       0.037700
     48 H122         2.9580     3.1690     8.8790 hc         1 EB1       0.037700
     49 H14         -0.3830     3.3540     7.1150 hc         1 EB1       0.049700
     50 H151         0.6150     5.1050     4.8410 hc         1 EB1       0.046200
     51 H152        -1.0280     4.9610     5.5110 hc         1 EB1       0.046200
     52 H161        -0.5620     6.6330     7.0170 hc         1 EB1       0.047700
     53 H162         1.0910     6.7720     6.3500 hc         1 EB1       0.047700
     54 H17          0.0400     4.9280     8.5170 hc         1 EB1       0.040700
     55 H181         2.8160     5.2960     6.0390 hc         1 EB1       0.036700
     56 H182         3.7890     4.4700     7.2640 hc         1 EB1       0.036700
     57 H183         3.1450     3.5650     5.8870 hc         1 EB1       0.036700
     58 H191         3.3150     3.5730     2.8820 ha         1 EB1       0.127000
     59 H192         3.2120     4.4070     1.2040 ha         1 EB1       0.127000
     60 H20          2.3240     5.4250     9.6090 hc         1 EB1       0.044700
     61 H211         1.5990     7.2500    10.9370 hc         1 EB1       0.035700
     62 H212         0.4440     7.7800     9.7070 hc         1 EB1       0.035700
     63 H213         0.1730     6.2660    10.5800 hc         1 EB1       0.035700
     64 H22          2.4330     7.9060     7.8020 ha         1 EB1       0.141000
     65 H23          4.1290     6.1070     9.6470 ha         1 EB1       0.131000
     66 H24          4.6880     8.4720     7.6870 ha         1 EB1       0.129000
     67 H25          6.0240     7.5540    10.1950 ha         1 EB1       0.119000
     68 HO1          1.2840     4.0700    -1.1570 ho         1 EB1       0.405000
     69 H261         7.6980     9.1550     7.1360 hc         1 EB1       0.040700
     70 H262         8.0450    10.6570     7.9800 hc         1 EB1       0.040700
     71 H281         7.8490     8.2460    10.7290 hc         1 EB1       0.040700
     72 H282         8.7360     9.6170    10.0750 hc         1 EB1       0.040700
     73 HO3          6.7250    10.5560    10.5840 ho         1 EB1       0.398000
     74 H301         9.7280     8.3290     8.3380 hc         1 EB1       0.038367
     75 H302         8.3630     7.2080     8.2440 hc         1 EB1       0.038367
     76 H303         9.5390     7.0630     9.5590 hc         1 EB1       0.038367
     77 H311         6.5170    11.5000     6.5630 hc         1 EB1       0.038367
     78 H312         5.7600     9.9270     6.2770 hc         1 EB1       0.038367
     79 H313         5.3570    10.8510     7.7310 hc         1 EB1       0.038367
@<TRIPOS>BOND
     1     1     4 1
     2     1    34 1
     3     2     3 1
     4     2    11 1
     5     2    28 1
     6     2    35 1
     7     3     4 1
     8     3    36 1
     9     3    37 1
    10     4     5 1
    11     4    38 1
    12     5     6 1
    13     5    39 1
    14     5    40 1
    15     6     7 2
    16     6    11 1
    17     7     8 1
    18     7    41 1
    19     8     9 2
    20     8    42 1
    21     9    10 1
    22     9    15 1
    23    10    12 1
    24    10    43 1
    25    10    44 1
    26    11    20 2
    27    12    13 1
    28    12    45 1
    29    12    46 1
    30    13    14 1
    31    13    47 1
    32    13    48 1
    33    14    15 1
    34    14    18 1
    35    14    19 1
    36    15    16 1
    37    15    49 1
    38    16    17 1
    39    16    50 1
    40    16    51 1
    41    17    18 1
    42    17    52 1
    43    17    53 1
    44    18    21 1
    45    18    54 1
    46    19    55 1
    47    19    56 1
    48    19    57 1
    49    20    58 1
    50    20    59 1
    51    21    22 1
    52    21    23 1
    53    21    60 1
    54    22    61 1
    55    22    62 1
    56    22    63 1
    57    23    24 2
    58    23    64 1
    59    24    25 1
    60    24    65 1
    61    25    26 2
    62    25    66 1
    63    26    27 1
    64    26    67 1
    65    27    29 1
    66    27    30 1
    67    27    31 1
    68    28    68 1
    69    29    33 1
    70    29    69 1
    71    29    70 1
    72    30    32 1
    73    30    71 1
    74    30    72 1
    75    31    73 1
    76    32    74 1
    77    32    75 1
    78    32    76 1
    79    33    77 1
    80    33    78 1
    81    33    79 1
@<TRIPOS>SUBSTRUCTURE
     1 EB1         1 TEMP              0 ****  ****    0 ROOT
