@<TRIPOS>MOLECULE
molecule
   47    50     1     0     0
SMALL
bcc


@<TRIPOS>ATOM
      1 CAU          0.0000     0.0000     0.0000 c3         1 EB3      -0.092400
      2 CAV          1.5300     0.0000     0.0000 c3         1 EB3      -0.078900
      3 CAW          2.0400     0.0000     1.4420 c3         1 EB3      -0.083400
      4 CAX          1.5300    -1.2490     2.1640 c3         1 EB3      -0.078900
      5 CAY          0.0000    -1.2490     2.1640 c3         1 EB3      -0.092400
      6 CAT         -0.5100    -1.2490     0.7210 c3         1 EB3       0.248500
      7 NAS         -1.9750    -1.2490     0.7210 n7         1 EB3      -0.911100
      8 SAP         -2.8030    -2.4590    -0.0480 sy         1 EB3       1.428200
      9 OAQ         -4.1830    -2.2100     0.1820 o          1 EB3      -0.637800
     10 OAR         -2.2400    -2.5670    -1.3480 o          1 EB3      -0.637800
     11 CAH         -2.4230    -3.9640     0.7870 ca         1 EB3      -0.331500
     12 CAG         -1.7500    -4.9680     0.1460 ca         1 EB3       0.025000
     13 CAF         -1.4220    -6.1790     0.7550 ca         1 EB3      -0.183000
     14 CAE         -1.7800    -6.4100     2.0710 ca         1 EB3       0.085800
     15 CAA         -2.4650    -5.3790     2.7080 ca         1 EB3      -0.119000
     16 CAI         -2.7990    -4.1570     2.1260 ca         1 EB3       0.066000
     17 CAJ         -3.4870    -3.2310     2.9280 ca         1 EB3      -0.099000
     18 CAK         -3.7840    -3.5670     4.2230 ca         1 EB3      -0.121000
     19 CAL         -3.4360    -4.7910     4.7910 ca         1 EB3      -0.036000
     20 CAB         -2.7680    -5.7350     4.0310 ca         1 EB3      -0.133000
     21 CAC         -2.2160    -7.0880     4.1770 c          1 EB3       0.321800
     22 OAN         -2.2620    -7.7740     5.1810 o          1 EB3      -0.310000
     23 NAD         -1.6460    -7.4380     2.9940 n          1 EB3      -0.162300
     24 CAM         -0.9820    -8.7180     2.7320 c3         1 EB3       0.053300
     25 CAO          0.5040    -8.6040     3.0810 c3         1 EB3      -0.116100
     26 H1          -0.3600    -0.0020    -1.0220 hc         1 EB3       0.049450
     27 H2          -0.3600     0.8840     0.5130 hc         1 EB3       0.049450
     28 H3           1.8890     0.8860    -0.5090 hc         1 EB3       0.044450
     29 H4           1.8900    -0.8860    -0.5090 hc         1 EB3       0.044450
     30 H5           3.1240    -0.0030     1.4400 hc         1 EB3       0.043200
     31 H6           1.6770     0.8840     1.9520 hc         1 EB3       0.043200
     32 H7           1.8900    -2.1330     1.6520 hc         1 EB3       0.044450
     33 H8           1.8900    -1.2460     3.1860 hc         1 EB3       0.044450
     34 H9          -0.3590    -0.3630     2.6730 hc         1 EB3       0.049450
     35 H10         -0.3590    -2.1350     2.6730 hc         1 EB3       0.049450
     36 H11         -0.1440    -2.1330     0.2120 h1         1 EB3       0.066700
     37 H12         -2.4750    -0.5150     1.1820 hn         1 EB3       0.452800
     38 H13         -1.4570    -4.8150    -0.8850 ha         1 EB3       0.158000
     39 H14         -0.8870    -6.9380     0.1980 ha         1 EB3       0.141000
     40 H15         -3.7780    -2.2660     2.5290 ha         1 EB3       0.151000
     41 H16         -4.3140    -2.8460     4.8340 ha         1 EB3       0.139000
     42 H17         -3.6960    -5.0060     5.8210 ha         1 EB3       0.148000
     43 H18         -1.0890    -8.9710     1.6840 h1         1 EB3       0.065200
     44 H19         -1.4380    -9.4920     3.3380 h1         1 EB3       0.065200
     45 H20          0.9410    -9.5940     3.1260 hc         1 EB3       0.047367
     46 H21          1.0090    -8.0200     2.3220 hc         1 EB3       0.047367
     47 H22          0.6120    -8.1170     4.0430 hc         1 EB3       0.047367
@<TRIPOS>BOND
     1     2     3 1
     2     2     1 1
     3     3     4 1
     4     1     6 1
     5     4     5 1
     6     6     5 1
     7     6     7 1
     8     7     8 1
     9     9     8 2
    10     8    10 2
    11     8    11 1
    12    11    12 ar
    13    11    16 ar
    14    17    16 ar
    15    17    18 ar
    16    12    13 ar
    17    16    15 ar
    18    18    19 ar
    19    15    14 ar
    20    15    20 ar
    21    13    14 ar
    22    19    20 ar
    23    14    23 1
    24    20    21 1
    25    23    21 1
    26    23    24 1
    27    21    22 2
    28    25    24 1
    29     1    26 1
    30     1    27 1
    31     2    28 1
    32     2    29 1
    33     3    30 1
    34     3    31 1
    35     4    32 1
    36     4    33 1
    37     5    34 1
    38     5    35 1
    39     6    36 1
    40     7    37 1
    41    12    38 1
    42    13    39 1
    43    17    40 1
    44    18    41 1
    45    19    42 1
    46    24    43 1
    47    24    44 1
    48    25    45 1
    49    25    46 1
    50    25    47 1
@<TRIPOS>SUBSTRUCTURE
     1 EB3         1 TEMP              0 ****  ****    0 ROOT
