@<TRIPOS>MOLECULE
EB3
   47    50     1     0     0
SMALL
bcc


@<TRIPOS>ATOM
      1 CAU          0.0000     0.0000     0.0000 c3         1 EB3      -0.044900
      2 CAV          1.5300     0.0000     0.0000 c3         1 EB3      -0.017900
      3 CAW          2.0400     0.0000     1.4420 c3         1 EB3      -0.027400
      4 CAX          1.5300    -1.2490     2.1640 c3         1 EB3      -0.017900
      5 CAY          0.0000    -1.2490     2.1640 c3         1 EB3      -0.044900
      6 CAT         -0.5100    -1.2490     0.7210 c3         1 EB3       0.205500
      7 NAS         -1.9750    -1.2490     0.7210 n7         1 EB3      -0.577100
      8 SAP         -2.8030    -2.4590    -0.0480 sy         1 EB3       1.046200
      9 OAQ         -4.1830    -2.2100     0.1820 o          1 EB3      -0.588300
     10 OAR         -2.2400    -2.5670    -1.3480 o          1 EB3      -0.588300
     11 CAH         -2.4230    -3.9640     0.7870 ca         1 EB3      -0.169500
     12 CAG         -1.7500    -4.9680     0.1460 ca         1 EB3       0.052000
     13 CAF         -1.4220    -6.1790     0.7550 ca         1 EB3      -0.150000
     14 CAE         -1.7800    -6.4100     2.0710 ca         1 EB3      -0.055200
     15 CAA         -2.4650    -5.3790     2.7080 ca         1 EB3      -0.136000
     16 CAI         -2.7990    -4.1570     2.1260 ca         1 EB3       0.073000
     17 CAJ         -3.4870    -3.2310     2.9280 ca         1 EB3      -0.072000
     18 CAK         -3.7840    -3.5670     4.2230 ca         1 EB3      -0.101000
     19 CAL         -3.4360    -4.7910     4.7910 ca         1 EB3       0.011000
     20 CAB         -2.7680    -5.7350     4.0310 ca         1 EB3      -0.148000
     21 CAC         -2.2160    -7.0880     4.1770 c          1 EB3       0.249800
     22 OAN         -2.2620    -7.7740     5.1810 o          1 EB3      -0.353000
     23 NAD         -1.6460    -7.4380     2.9940 n          1 EB3       0.225700
     24 CAM         -0.9820    -8.7180     2.7320 c3         1 EB3      -0.010700
     25 CAO          0.5040    -8.6040     3.0810 c3         1 EB3      -0.016100
     26 H1          -0.3600    -0.0020    -1.0220 hc         1 EB3       0.021200
     27 H2          -0.3600     0.8840     0.5130 hc         1 EB3       0.021200
     28 H3           1.8890     0.8860    -0.5090 hc         1 EB3       0.014950
     29 H4           1.8900    -0.8860    -0.5090 hc         1 EB3       0.014950
     30 H5           3.1240    -0.0030     1.4400 hc         1 EB3       0.014200
     31 H6           1.6770     0.8840     1.9520 hc         1 EB3       0.014200
     32 H7           1.8900    -2.1330     1.6520 hc         1 EB3       0.014950
     33 H8           1.8900    -1.2460     3.1860 hc         1 EB3       0.014950
     34 H9          -0.3590    -0.3630     2.6730 hc         1 EB3       0.021200
     35 H10         -0.3590    -2.1350     2.6730 hc         1 EB3       0.021200
     36 H11         -0.1440    -2.1330     0.2120 h1         1 EB3       0.040700
     37 H12         -2.4750    -0.5150     1.1820 hn         1 EB3       0.348800
     38 H13         -1.4570    -4.8150    -0.8850 ha         1 EB3       0.126000
     39 H14         -0.8870    -6.9380     0.1980 ha         1 EB3       0.114000
     40 H15         -3.7780    -2.2660     2.5290 ha         1 EB3       0.130000
     41 H16         -4.3140    -2.8460     4.8340 ha         1 EB3       0.107000
     42 H17         -3.6960    -5.0060     5.8210 ha         1 EB3       0.113000
     43 H18         -1.0890    -8.9710     1.6840 h1         1 EB3       0.033700
     44 H19         -1.4380    -9.4920     3.3380 h1         1 EB3       0.033700
     45 H20          0.9410    -9.5940     3.1260 hc         1 EB3       0.012700
     46 H21          1.0090    -8.0200     2.3220 hc         1 EB3       0.012700
     47 H22          0.6120    -8.1170     4.0430 hc         1 EB3       0.012700
@<TRIPOS>BOND
     1     1     2 1   
     2     1     6 1   
     3     1    26 1   
     4     1    27 1   
     5     2     3 1   
     6     2    28 1   
     7     2    29 1   
     8     3     4 1   
     9     3    30 1   
    10     3    31 1   
    11     4     5 1   
    12     4    32 1   
    13     4    33 1   
    14     5     6 1   
    15     5    34 1   
    16     5    35 1   
    17     6     7 1   
    18     6    36 1   
    19     7     8 1   
    20     7    37 1   
    21     8     9 2   
    22     8    10 2   
    23     8    11 1   
    24    11    12 ar  
    25    11    16 ar  
    26    12    13 ar  
    27    12    38 1   
    28    13    14 ar  
    29    13    39 1   
    30    14    15 ar  
    31    14    23 1   
    32    15    16 ar  
    33    15    20 ar  
    34    16    17 ar  
    35    17    18 ar  
    36    17    40 1   
    37    18    19 ar  
    38    18    41 1   
    39    19    20 ar  
    40    19    42 1   
    41    20    21 1   
    42    21    22 2   
    43    21    23 1   
    44    23    24 1   
    45    24    25 1   
    46    24    43 1   
    47    24    44 1   
    48    25    45 1   
    49    25    46 1   
    50    25    47 1   
@<TRIPOS>SUBSTRUCTURE
     1 EB3         1 TEMP              0 ****  ****    0 ROOT
