@<TRIPOS>MOLECULE
molecule
   37    39     1     0     0
SMALL
bcc


@<TRIPOS>ATOM
      1 CAU          0.0000     0.0000     0.0000 c3         1 EB5      -0.101100
      2 CAT          1.5300     0.0000     0.0000 c3         1 EB5       0.230800
      3 NAS          2.0190     0.0000     1.3820 n7         1 EB5      -0.919100
      4 SAP          3.5980    -0.3820     1.7010 sy         1 EB5       1.432200
      5 OAQ          3.7670    -0.2450     3.1050 o          1 EB5      -0.638800
      6 OAR          3.8690    -1.5880     1.0000 o          1 EB5      -0.638800
      7 CAC          4.5970     0.8620     0.9560 ca         1 EB5      -0.332500
      8 CAB          5.4570     0.5530    -0.0630 ca         1 EB5       0.026000
      9 CAA          6.2710     1.4950    -0.6900 ca         1 EB5      -0.182000
     10 CAF          6.2350     2.8170    -0.2860 ca         1 EB5       0.085800
     11 CAE          5.3570     3.1170     0.7500 ca         1 EB5      -0.120000
     12 CAD          4.5270     2.1970     1.3910 ca         1 EB5       0.066000
     13 CAG          3.6970     2.6840     2.4150 ca         1 EB5      -0.099000
     14 CAH          3.7410     4.0160     2.7250 ca         1 EB5      -0.120000
     15 CAI          4.5730     4.9240     2.0710 ca         1 EB5      -0.036000
     16 CAJ          5.4120     4.4830     1.0630 ca         1 EB5      -0.133000
     17 CAL          6.4130     5.0250     0.1370 c          1 EB5       0.321800
     18 OAO          6.7620     6.1890     0.0620 o          1 EB5      -0.310000
     19 NAK          6.8610     4.0050    -0.6410 n          1 EB5      -0.163300
     20 CAM          7.8680     4.1380    -1.6970 c3         1 EB5       0.054300
     21 CAN          7.1750     4.4470    -3.0260 c3         1 EB5      -0.116100
     22 H1          -0.3610    -0.8180     0.6120 hc         1 EB5       0.044033
     23 H2          -0.3610     0.9390     0.4020 hc         1 EB5       0.044033
     24 H3          -0.3610    -0.1210    -1.0140 hc         1 EB5       0.044033
     25 H4           1.8910     0.8840    -0.5110 h1         1 EB5       0.047700
     26 H5           1.8910    -0.8850    -0.5110 h1         1 EB5       0.047700
     27 H6           1.3880     0.1900     2.1350 hn         1 EB5       0.454800
     28 H7           5.5070    -0.4760    -0.3990 ha         1 EB5       0.158000
     29 H8           6.9320     1.1910    -1.4930 ha         1 EB5       0.141000
     30 H9           3.0340     2.0150     2.9510 ha         1 EB5       0.152000
     31 H10          3.0990     4.3830     3.5170 ha         1 EB5       0.139000
     32 H11          4.5680     5.9690     2.3560 ha         1 EB5       0.148000
     33 H12          8.5480     4.9430    -1.4480 h1         1 EB5       0.065700
     34 H13          8.4220     3.2110    -1.7860 h1         1 EB5       0.065700
     35 H14          7.1090     3.5430    -3.6180 hc         1 EB5       0.047367
     36 H15          6.1790     4.8270    -2.8340 hc         1 EB5       0.047367
     37 H16          7.7480     5.1910    -3.5670 hc         1 EB5       0.047367
@<TRIPOS>BOND
     1     1     2 1
     2     3     2 1
     3     3     4 1
     4     6     4 2
     5    14    13 ar
     6    14    15 ar
     7    13    12 ar
     8     4     5 2
     9     4     7 1
    10    15    16 ar
    11    12     7 ar
    12    12    11 ar
    13     7     8 ar
    14    16    11 ar
    15    16    17 1
    16    11    10 ar
    17     8     9 ar
    18    17    18 2
    19    17    19 1
    20    10     9 ar
    21    10    19 1
    22    19    20 1
    23    21    20 1
    24     1    22 1
    25     1    23 1
    26     1    24 1
    27     2    25 1
    28     2    26 1
    29     3    27 1
    30     8    28 1
    31     9    29 1
    32    13    30 1
    33    14    31 1
    34    15    32 1
    35    20    33 1
    36    20    34 1
    37    21    35 1
    38    21    36 1
    39    21    37 1
@<TRIPOS>SUBSTRUCTURE
     1 EB5         1 TEMP              0 ****  ****    0 ROOT
