@<TRIPOS>MOLECULE
molecule
   41    44     1     0     0
SMALL
bcc


@<TRIPOS>ATOM
      1 ClA          0.0000     0.0000     0.0000 cl         1 EB7      -0.068400
      2 CAU          1.7350     0.0000     0.0000 ca         1 EB7       0.140400
      3 CAV          2.4270     0.0000     1.1980 ca         1 EB7      -0.183000
      4 CAW          3.8110    -0.0010     1.1980 ca         1 EB7       0.197900
      5 FBA          4.4870    -0.0030     2.3680 f          1 EB7      -0.123900
      6 CAX          4.5020    -0.0010    -0.0020 ca         1 EB7      -0.192000
      7 CAY          3.8100    -0.0000    -1.1980 ca         1 EB7       0.002000
      8 CAR          2.4280    -0.0050    -1.1980 ca         1 EB7      -0.333500
      9 SAQ          1.5470    -0.0030    -2.7240 sy         1 EB7       1.422200
     10 OAS          0.5870     1.0410    -2.6320 o          1 EB7      -0.613300
     11 OAT          2.5260    -0.0720    -3.7520 o          1 EB7      -0.613300
     12 NAP          0.6920    -1.4200    -2.7970 nu         1 EB7      -0.752500
     13 CAC          1.3630    -2.6320    -2.9230 ca         1 EB7       0.159600
     14 CAB          2.5860    -2.8360    -2.3010 ca         1 EB7      -0.162000
     15 CAA          3.2920    -4.0330    -2.3940 ca         1 EB7      -0.108000
     16 CAF          2.7810    -5.0860    -3.1300 ca         1 EB7       0.009800
     17 CAE          1.5540    -4.8720    -3.7480 ca         1 EB7      -0.078000
     18 CAD          0.8150    -3.6890    -3.6810 ca         1 EB7      -0.029000
     19 CAG         -0.4080    -3.6550    -4.3660 ca         1 EB7      -0.076000
     20 CAH         -0.8110    -4.7740    -5.0670 ca         1 EB7      -0.143000
     21 CAI         -0.0570    -5.9430    -5.1280 ca         1 EB7      -0.023000
     22 CAJ          1.1530    -6.0150    -4.4580 ca         1 EB7      -0.140000
     23 CAL          2.2360    -6.9780    -4.2340 c          1 EB7       0.321800
     24 OAM          2.2890    -8.1110    -4.6770 o          1 EB7      -0.323000
     25 NAK          3.1700    -6.3840    -3.4470 n          1 EB7      -0.160300
     26 CAN          4.4110    -7.0200    -2.9960 c3         1 EB7       0.057300
     27 CAO          4.1660    -7.7310    -1.6640 c3         1 EB7      -0.118100
     28 H1           1.8850    -0.0350     2.1360 ha         1 EB7       0.166000
     29 H2           5.5860     0.0010    -0.0030 ha         1 EB7       0.159000
     30 H3           4.3510    -0.0020    -2.1370 ha         1 EB7       0.174000
     31 H4          -0.3060    -1.4070    -2.7210 hn         1 EB7       0.467800
     32 H5           3.0100    -2.0290    -1.7160 ha         1 EB7       0.139000
     33 H6           4.2430    -4.1390    -1.8870 ha         1 EB7       0.138000
     34 H7          -1.0260    -2.7660    -4.3450 ha         1 EB7       0.137000
     35 H8          -1.7570    -4.7410    -5.5940 ha         1 EB7       0.137000
     36 H9          -0.4180    -6.7950    -5.6930 ha         1 EB7       0.148000
     37 H10          4.7370    -7.7410    -3.7360 h1         1 EB7       0.063200
     38 H11          5.1770    -6.2640    -2.8660 h1         1 EB7       0.063200
     39 H12          4.2140    -8.8030    -1.8120 hc         1 EB7       0.046700
     40 H13          4.9230    -7.4310    -0.9500 hc         1 EB7       0.046700
     41 H14          3.1870    -7.4620    -1.2860 hc         1 EB7       0.046700
@<TRIPOS>BOND
     1    26    27 1
     2    26    25 1
     3    25    16 1
     4    25    23 1
     5    15    16 ar
     6    15    14 ar
     7    16    17 ar
     8    24    23 2
     9    14    13 ar
    10    23    22 1
    11    17    22 ar
    12    17    18 ar
    13    22    21 ar
    14    13    18 ar
    15    13    12 1
    16    11     9 2
    17    18    19 ar
    18    12     9 1
    19    21    20 ar
    20    19    20 ar
    21     9    10 2
    22     9     8 1
    23     7     8 ar
    24     7     6 ar
    25     8     2 ar
    26     6     4 ar
    27     2     1 1
    28     2     3 ar
    29     4     3 ar
    30     4     5 1
    31     3    28 1
    32     6    29 1
    33     7    30 1
    34    12    31 1
    35    14    32 1
    36    15    33 1
    37    19    34 1
    38    20    35 1
    39    21    36 1
    40    26    37 1
    41    26    38 1
    42    27    39 1
    43    27    40 1
    44    27    41 1
@<TRIPOS>SUBSTRUCTURE
     1 EB7         1 TEMP              0 ****  ****    0 ROOT
