@<TRIPOS>MOLECULE
EB7
   41    44     1     0     0
SMALL
bcc


@<TRIPOS>ATOM
      1 ClA          0.0000     0.0000     0.0000 cl         1 EB7       0.022600
      2 CAU          1.7350     0.0000     0.0000 ca         1 EB7       0.072400
      3 CAV          2.4270     0.0000     1.1980 ca         1 EB7      -0.160000
      4 CAW          3.8110    -0.0010     1.1980 ca         1 EB7       0.170900
      5 FBA          4.4870    -0.0030     2.3680 f          1 EB7      -0.118900
      6 CAX          4.5020    -0.0010    -0.0020 ca         1 EB7      -0.165000
      7 CAY          3.8100    -0.0000    -1.1980 ca         1 EB7       0.040000
      8 CAR          2.4280    -0.0050    -1.1980 ca         1 EB7      -0.181500
      9 SAQ          1.5470    -0.0030    -2.7240 sy         1 EB7       1.036200
     10 OAS          0.5870     1.0410    -2.6320 o          1 EB7      -0.568300
     11 OAT          2.5260    -0.0720    -3.7520 o          1 EB7      -0.568300
     12 NAP          0.6920    -1.4200    -2.7970 nu         1 EB7      -0.379500
     13 CAC          1.3630    -2.6320    -2.9230 ca         1 EB7       0.090600
     14 CAB          2.5860    -2.8360    -2.3010 ca         1 EB7      -0.167000
     15 CAA          3.2920    -4.0330    -2.3940 ca         1 EB7      -0.060000
     16 CAF          2.7810    -5.0860    -3.1300 ca         1 EB7      -0.136200
     17 CAE          1.5540    -4.8720    -3.7480 ca         1 EB7      -0.081000
     18 CAD          0.8150    -3.6890    -3.6810 ca         1 EB7      -0.033000
     19 CAG         -0.4080    -3.6550    -4.3660 ca         1 EB7      -0.045000
     20 CAH         -0.8110    -4.7740    -5.0670 ca         1 EB7      -0.124000
     21 CAI         -0.0570    -5.9430    -5.1280 ca         1 EB7       0.023000
     22 CAJ          1.1530    -6.0150    -4.4580 ca         1 EB7      -0.155000
     23 CAL          2.2360    -6.9780    -4.2340 c          1 EB7       0.246800
     24 OAM          2.2890    -8.1110    -4.6770 o          1 EB7      -0.369000
     25 NAK          3.1700    -6.3840    -3.4470 n          1 EB7       0.229700
     26 CAN          4.4110    -7.0200    -2.9960 c3         1 EB7      -0.009700
     27 CAO          4.1660    -7.7310    -1.6640 c3         1 EB7      -0.019100
     28 H1           1.8850    -0.0350     2.1360 ha         1 EB7       0.137000
     29 H2           5.5860     0.0010    -0.0030 ha         1 EB7       0.130000
     30 H3           4.3510    -0.0020    -2.1370 ha         1 EB7       0.141000
     31 H4          -0.3060    -1.4070    -2.7210 hn         1 EB7       0.350800
     32 H5           3.0100    -2.0290    -1.7160 ha         1 EB7       0.123000
     33 H6           4.2430    -4.1390    -1.8870 ha         1 EB7       0.105000
     34 H7          -1.0260    -2.7660    -4.3450 ha         1 EB7       0.106000
     35 H8          -1.7570    -4.7410    -5.5940 ha         1 EB7       0.106000
     36 H9          -0.4180    -6.7950    -5.6930 ha         1 EB7       0.112000
     37 H10          4.7370    -7.7410    -3.7360 h1         1 EB7       0.031700
     38 H11          5.1770    -6.2640    -2.8660 h1         1 EB7       0.031700
     39 H12          4.2140    -8.8030    -1.8120 hc         1 EB7       0.011700
     40 H13          4.9230    -7.4310    -0.9500 hc         1 EB7       0.011700
     41 H14          3.1870    -7.4620    -1.2860 hc         1 EB7       0.011700
@<TRIPOS>BOND
     1     1     2 1   
     2     2     3 ar  
     3     2     8 ar  
     4     3     4 ar  
     5     3    28 1   
     6     4     5 1   
     7     4     6 ar  
     8     6     7 ar  
     9     6    29 1   
    10     7     8 ar  
    11     7    30 1   
    12     8     9 1   
    13     9    10 2   
    14     9    11 2   
    15     9    12 1   
    16    12    13 1   
    17    12    31 1   
    18    13    14 ar  
    19    13    18 ar  
    20    14    15 ar  
    21    14    32 1   
    22    15    16 ar  
    23    15    33 1   
    24    16    17 ar  
    25    16    25 1   
    26    17    18 ar  
    27    17    22 ar  
    28    18    19 ar  
    29    19    20 ar  
    30    19    34 1   
    31    20    21 ar  
    32    20    35 1   
    33    21    22 ar  
    34    21    36 1   
    35    22    23 1   
    36    23    24 2   
    37    23    25 1   
    38    25    26 1   
    39    26    27 1   
    40    26    37 1   
    41    26    38 1   
    42    27    39 1   
    43    27    40 1   
    44    27    41 1   
@<TRIPOS>SUBSTRUCTURE
     1 EB7         1 TEMP              0 ****  ****    0 ROOT
