@<TRIPOS>MOLECULE
molecule
   47    50     1     0     0
SMALL
bcc


@<TRIPOS>ATOM
      1 CAO          0.0000     0.0000     0.0000 c3         1 EB8      -0.118100
      2 CAN          1.5300     0.0000     0.0000 c3         1 EB8       0.058300
      3 NAK          2.0190     0.0000     1.3810 n          1 EB8      -0.161300
      4 CAL          2.2710     1.1150     2.1170 c          1 EB8       0.321800
      5 OAM          2.1320     2.2650     1.7430 o          1 EB8      -0.327000
      6 CAJ          2.7410     0.6890     3.4380 ca         1 EB8      -0.143000
      7 CAI          3.1590     1.2590     4.6300 ca         1 EB8      -0.026000
      8 CAH          3.5390     0.4410     5.6900 ca         1 EB8      -0.150000
      9 CAG          3.5220    -0.9390     5.6190 ca         1 EB8      -0.076000
     10 CAD          3.1050    -1.5490     4.4280 ca         1 EB8      -0.033000
     11 CAE          2.7280    -0.7130     3.3760 ca         1 EB8      -0.081000
     12 CAF          2.2840    -1.1420     2.1300 ca         1 EB8       0.002800
     13 CAA          2.2190    -2.5110     1.9380 ca         1 EB8      -0.111000
     14 CAB          2.5810    -3.3790     2.9630 ca         1 EB8      -0.167000
     15 CAC          3.0340    -2.9410     4.1990 ca         1 EB8       0.141600
     16 NAP          3.3850    -3.8490     5.1930 nu         1 EB8      -0.742500
     17 SAQ          4.1100    -5.2810     4.7890 sy         1 EB8       1.441200
     18 OAS          4.4830    -5.9010     6.0110 o          1 EB8      -0.627300
     19 OAT          3.2650    -5.9010     3.8280 o          1 EB8      -0.627300
     20 CAR          5.6100    -4.8890     3.9520 ca         1 EB8      -0.255500
     21 CAY          5.7880    -5.2650     2.6360 ca         1 EB8      -0.038000
     22 CAX          6.9650    -4.9580     1.9780 ca         1 EB8      -0.119000
     23 CAW          7.9720    -4.2710     2.6320 ca         1 EB8      -0.092000
     24 CAV          7.8090    -3.8880     3.9470 ca         1 EB8      -0.094000
     25 CAU          6.6200    -4.1900     4.6160 ca         1 EB8      -0.039600
     26 CAZ          6.4360    -3.7780     6.0230 c          1 EB8       0.646700
     27 OBB          5.3710    -3.9650     6.5760 o          1 EB8      -0.550000
     28 OBA          7.4490    -3.1950     6.6930 os         1 EB8      -0.417900
     29 CBC          7.2350    -2.9200     8.1020 c3         1 EB8       0.140700
     30 H1          -0.3610    -0.6720    -0.7690 hc         1 EB8       0.046700
     31 H2          -0.3610    -0.3300     0.9670 hc         1 EB8       0.046700
     32 H3          -0.3610     1.0020    -0.1980 hc         1 EB8       0.046700
     33 H4           1.8910    -0.8840    -0.5110 h1         1 EB8       0.061200
     34 H5           1.8910     0.8840    -0.5110 h1         1 EB8       0.061200
     35 H6           3.1900     2.3360     4.7360 ha         1 EB8       0.146000
     36 H7           3.8620     0.9070     6.6130 ha         1 EB8       0.134000
     37 H8           3.8260    -1.5380     6.4680 ha         1 EB8       0.143000
     38 H9           1.8710    -2.9070     0.9920 ha         1 EB8       0.138000
     39 H10          2.5050    -4.4450     2.7880 ha         1 EB8       0.183000
     40 H11          3.1490    -3.6610     6.1480 hn         1 EB8       0.479800
     41 H12          5.0030    -5.8040     2.1180 ha         1 EB8       0.163000
     42 H13          7.0990    -5.2560     0.9450 ha         1 EB8       0.142000
     43 H14          8.8920    -4.0350     2.1110 ha         1 EB8       0.141000
     44 H15          8.5970    -3.3480     4.4580 ha         1 EB8       0.155000
     45 H16          8.1380    -2.5030     8.5300 h1         1 EB8       0.053367
     46 H17          6.4230    -2.2110     8.2120 h1         1 EB8       0.053367
     47 H18          6.9830    -3.8400     8.6150 h1         1 EB8       0.053367
@<TRIPOS>BOND
     1     2     1 1
     2     2     3 1
     3     3    12 1
     4     3     4 1
     5    13    12 ar
     6    13    14 ar
     7    12    11 ar
     8     5     4 2
     9     4     6 1
    10    14    15 ar
    11    11     6 ar
    12    11    10 ar
    13     6     7 ar
    14    15    10 ar
    15    15    16 1
    16    10     9 ar
    17    18    17 2
    18    16    17 1
    19     7     8 ar
    20     9     8 ar
    21    17    19 2
    22    17    20 1
    23    21    20 ar
    24    21    22 ar
    25    20    25 ar
    26    22    23 ar
    27    27    26 2
    28    25    26 1
    29    25    24 ar
    30    26    28 1
    31    23    24 ar
    32    28    29 1
    33     1    30 1
    34     1    31 1
    35     1    32 1
    36     2    33 1
    37     2    34 1
    38     7    35 1
    39     8    36 1
    40     9    37 1
    41    13    38 1
    42    14    39 1
    43    16    40 1
    44    21    41 1
    45    22    42 1
    46    23    43 1
    47    24    44 1
    48    29    45 1
    49    29    46 1
    50    29    47 1
@<TRIPOS>SUBSTRUCTURE
     1 EB8         1 TEMP              0 ****  ****    0 ROOT
