@<TRIPOS>MOLECULE
EB8
   47    50     1     0     0
SMALL
bcc


@<TRIPOS>ATOM
      1 CAO          0.0000     0.0000     0.0000 c3         1 EB8      -0.019100
      2 CAN          1.5300     0.0000     0.0000 c3         1 EB8      -0.008700
      3 NAK          2.0190     0.0000     1.3810 n          1 EB8       0.229700
      4 CAL          2.2710     1.1150     2.1170 c          1 EB8       0.246800
      5 OAM          2.1320     2.2650     1.7430 o          1 EB8      -0.374000
      6 CAJ          2.7410     0.6890     3.4380 ca         1 EB8      -0.157000
      7 CAI          3.1590     1.2590     4.6300 ca         1 EB8       0.019000
      8 CAH          3.5390     0.4410     5.6900 ca         1 EB8      -0.131000
      9 CAG          3.5220    -0.9390     5.6190 ca         1 EB8      -0.049000
     10 CAD          3.1050    -1.5490     4.4280 ca         1 EB8      -0.040000
     11 CAE          2.7280    -0.7130     3.3760 ca         1 EB8      -0.084000
     12 CAF          2.2840    -1.1420     2.1300 ca         1 EB8      -0.148200
     13 CAA          2.2190    -2.5110     1.9380 ca         1 EB8      -0.060000
     14 CAB          2.5810    -3.3790     2.9630 ca         1 EB8      -0.175000
     15 CAC          3.0340    -2.9410     4.1990 ca         1 EB8       0.068600
     16 NAP          3.3850    -3.8490     5.1930 nu         1 EB8      -0.364500
     17 SAQ          4.1100    -5.2810     4.7890 sy         1 EB8       1.049200
     18 OAS          4.4830    -5.9010     6.0110 o          1 EB8      -0.579800
     19 OAT          3.2650    -5.9010     3.8280 o          1 EB8      -0.579800
     20 CAR          5.6100    -4.8890     3.9520 ca         1 EB8      -0.099500
     21 CAY          5.7880    -5.2650     2.6360 ca         1 EB8      -0.006000
     22 CAX          6.9650    -4.9580     1.9780 ca         1 EB8      -0.098000
     23 CAW          7.9720    -4.2710     2.6320 ca         1 EB8      -0.064000
     24 CAV          7.8090    -3.8880     3.9470 ca         1 EB8      -0.077000
     25 CAU          6.6200    -4.1900     4.6160 ca         1 EB8      -0.051600
     26 CAZ          6.4360    -3.7780     6.0230 c          1 EB8       0.710700
     27 OBB          5.3710    -3.9650     6.5760 o          1 EB8      -0.574000
     28 OBA          7.4490    -3.1950     6.6930 os         1 EB8      -0.411900
     29 CBC          7.2350    -2.9200     8.1020 c3         1 EB8       0.273700
     30 H1          -0.3610    -0.6720    -0.7690 hc         1 EB8       0.012367
     31 H2          -0.3610    -0.3300     0.9670 hc         1 EB8       0.012367
     32 H3          -0.3610     1.0020    -0.1980 hc         1 EB8       0.012367
     33 H4           1.8910    -0.8840    -0.5110 h1         1 EB8       0.030200
     34 H5           1.8910     0.8840    -0.5110 h1         1 EB8       0.030200
     35 H6           3.1900     2.3360     4.7360 ha         1 EB8       0.110000
     36 H7           3.8620     0.9070     6.6130 ha         1 EB8       0.103000
     37 H8           3.8260    -1.5380     6.4680 ha         1 EB8       0.113000
     38 H9           1.8710    -2.9070     0.9920 ha         1 EB8       0.106000
     39 H10          2.5050    -4.4450     2.7880 ha         1 EB8       0.171000
     40 H11          3.1490    -3.6610     6.1480 hn         1 EB8       0.366800
     41 H12          5.0030    -5.8040     2.1180 ha         1 EB8       0.134000
     42 H13          7.0990    -5.2560     0.9450 ha         1 EB8       0.111000
     43 H14          8.8920    -4.0350     2.1110 ha         1 EB8       0.108000
     44 H15          8.5970    -3.3480     4.4580 ha         1 EB8       0.123000
     45 H16          8.1380    -2.5030     8.5300 h1         1 EB8       0.003367
     46 H17          6.4230    -2.2110     8.2120 h1         1 EB8       0.003367
     47 H18          6.9830    -3.8400     8.6150 h1         1 EB8       0.003367
@<TRIPOS>BOND
     1     1     2 1   
     2     1    30 1   
     3     1    31 1   
     4     1    32 1   
     5     2     3 1   
     6     2    33 1   
     7     2    34 1   
     8     3     4 1   
     9     3    12 1   
    10     4     5 2   
    11     4     6 1   
    12     6     7 ar  
    13     6    11 ar  
    14     7     8 ar  
    15     7    35 1   
    16     8     9 ar  
    17     8    36 1   
    18     9    10 ar  
    19     9    37 1   
    20    10    11 ar  
    21    10    15 ar  
    22    11    12 ar  
    23    12    13 ar  
    24    13    14 ar  
    25    13    38 1   
    26    14    15 ar  
    27    14    39 1   
    28    15    16 1   
    29    16    17 1   
    30    16    40 1   
    31    17    18 2   
    32    17    19 2   
    33    17    20 1   
    34    20    21 ar  
    35    20    25 ar  
    36    21    22 ar  
    37    21    41 1   
    38    22    23 ar  
    39    22    42 1   
    40    23    24 ar  
    41    23    43 1   
    42    24    25 ar  
    43    24    44 1   
    44    25    26 1   
    45    26    27 2   
    46    26    28 1   
    47    28    29 1   
    48    29    45 1   
    49    29    46 1   
    50    29    47 1   
@<TRIPOS>SUBSTRUCTURE
     1 EB8         1 TEMP              0 ****  ****    0 ROOT
