@<TRIPOS>MOLECULE
molecule
   41    44     1     0     0
SMALL
bcc


@<TRIPOS>ATOM
      1 CAO          0.0000     0.0000     0.0000 c3         1 EB9      -0.116100
      2 CAN          1.5300     0.0000     0.0000 c3         1 EB9       0.057300
      3 NAK          2.0190     0.0000     1.3800 n          1 EB9      -0.162300
      4 CAL          2.2790    -1.1150     2.1130 c          1 EB9       0.321800
      5 OAM          2.1450    -2.2640     1.7370 o          1 EB9      -0.323000
      6 CAJ          2.7480    -0.6890     3.4350 ca         1 EB9      -0.140000
      7 CAI          3.1660    -1.2550     4.6280 ca         1 EB9      -0.026000
      8 CAH          3.5380    -0.4330     5.6890 ca         1 EB9      -0.143000
      9 CAG          3.5150     0.9360     5.6200 ca         1 EB9      -0.079000
     10 CAD          3.0970     1.5490     4.4300 ca         1 EB9      -0.030000
     11 CAE          2.7270     0.7140     3.3750 ca         1 EB9      -0.084000
     12 CAF          2.2890     1.1430     2.1280 ca         1 EB9       0.009800
     13 CAA          2.2220     2.5120     1.9370 ca         1 EB9      -0.116000
     14 CAB          2.5820     3.3800     2.9640 ca         1 EB9      -0.161000
     15 CAC          3.0170     2.9400     4.2050 ca         1 EB9       0.137600
     16 NAP          3.3670     3.8460     5.2010 nu         1 EB9      -0.758500
     17 SAQ          2.5370     5.2710     5.3530 sy         1 EB9       1.423200
     18 OAS          3.0300     5.9000     6.5280 o          1 EB9      -0.632300
     19 OAT          2.5620     5.8890     4.0730 o          1 EB9      -0.632300
     20 CAR          0.8530     4.8630     5.6740 ca         1 EB9      -0.313500
     21 CAU          0.4170     4.7080     6.9770 ca         1 EB9      -0.024000
     22 CAV         -0.9040     4.3860     7.2290 ca         1 EB9      -0.149500
     23 CAW         -1.7880     4.2200     6.1800 ca         1 EB9      -0.069000
     24 CAX         -1.3510     4.3760     4.8770 ca         1 EB9      -0.149500
     25 CAY         -0.0320     4.7020     4.6250 ca         1 EB9      -0.024000
     26 H1          -0.3610    -0.7310    -0.7130 hc         1 EB9       0.045700
     27 H2          -0.3610     0.9830    -0.2770 hc         1 EB9       0.045700
     28 H3          -0.3610    -0.2520     0.9900 hc         1 EB9       0.045700
     29 H4           1.8910     0.8840    -0.5110 h1         1 EB9       0.062700
     30 H5           1.8910    -0.8840    -0.5110 h1         1 EB9       0.062700
     31 H6           3.2030    -2.3330     4.7350 ha         1 EB9       0.147000
     32 H7           3.8620    -0.8980     6.6120 ha         1 EB9       0.136000
     33 H8           3.8140     1.5350     6.4720 ha         1 EB9       0.135000
     34 H9           1.8890     2.9090     0.9860 ha         1 EB9       0.140000
     35 H10          2.5210     4.4460     2.7850 ha         1 EB9       0.185000
     36 H11          4.1460     3.6550     5.8000 hn         1 EB9       0.465800
     37 H12          1.1090     4.8390     7.7990 ha         1 EB9       0.150000
     38 H13         -1.2460     4.2650     8.2500 ha         1 EB9       0.138000
     39 H14         -2.8220     3.9660     6.3770 ha         1 EB9       0.135000
     40 H15         -2.0440     4.2470     4.0540 ha         1 EB9       0.138000
     41 H16          0.3100     4.8240     3.6050 ha         1 EB9       0.150000
@<TRIPOS>BOND
     1    23    22 ar
     2    23    24 ar
     3    22    21 ar
     4    24    25 ar
     5    21    20 ar
     6    25    20 ar
     7    20    17 1
     8    19    17 2
     9     8     9 ar
    10     8     7 ar
    11     9    10 ar
    12    17    16 1
    13    17    18 2
    14     7     6 ar
    15    16    15 1
    16    10    15 ar
    17    10    11 ar
    18    15    14 ar
    19     6    11 ar
    20     6     4 1
    21    11    12 ar
    22     4     5 2
    23     4     3 1
    24    14    13 ar
    25    12    13 ar
    26    12     3 1
    27     3     2 1
    28     1     2 1
    29     1    26 1
    30     1    27 1
    31     1    28 1
    32     2    29 1
    33     2    30 1
    34     7    31 1
    35     8    32 1
    36     9    33 1
    37    13    34 1
    38    14    35 1
    39    16    36 1
    40    21    37 1
    41    22    38 1
    42    23    39 1
    43    24    40 1
    44    25    41 1
@<TRIPOS>SUBSTRUCTURE
     1 EB9         1 TEMP              0 ****  ****    0 ROOT
