@<TRIPOS>MOLECULE
EBC
   22    21     1     0     0
SMALL
bcc


@<TRIPOS>ATOM
      1 O10          0.0000     0.0000     0.0000 o          1 EBC      -0.611100
      2 C2           1.2120     0.0000     0.0000 c          1 EBC       0.555600
      3 C1           1.9670     0.0000     1.3040 c3         1 EBC       0.247500
      4 N3           1.8860    -0.0050    -1.1680 ns         1 EBC      -0.196900
      5 C4           1.1540    -0.0100    -2.4360 c3         1 EBC       0.040000
      6 C5           2.1470    -0.0150    -3.5990 c3         1 EBC       0.040000
      7 N6           1.4150    -0.0200    -4.8680 ns         1 EBC      -0.196900
      8 C7           2.0880    -0.0260    -6.0360 c          1 EBC       0.555600
      9 O9           3.3010    -0.0250    -6.0360 o          1 EBC      -0.611100
     10 C8           1.3340    -0.0310    -7.3400 c3         1 EBC       0.247500
     11 H1           2.5890     0.8850     1.3620 h1         1 EBC       0.037700
     12 I2           0.5630    -0.0020     2.9480 i          1 EBC      -0.345900
     13 H3           2.5910    -0.8840     1.3610 h1         1 EBC       0.037700
     14 H4           2.8870    -0.0040    -1.1680 hn         1 EBC       0.176500
     15 H5           0.5300     0.8730    -2.4980 h1         1 EBC       0.029700
     16 H6           0.5310    -0.8960    -2.4900 h1         1 EBC       0.029700
     17 H7           2.7700    -0.8990    -3.5380 h1         1 EBC       0.029700
     18 H8           2.7700     0.8700    -3.5450 h1         1 EBC       0.029700
     19 H9           0.4140    -0.0190    -4.8680 hn         1 EBC       0.176500
     20 H10          0.7110     0.8540    -7.4000 h1         1 EBC       0.037700
     21 I            2.7380    -0.0380    -8.9840 i          1 EBC      -0.345900
     22 H12          0.7110    -0.9150    -7.3930 h1         1 EBC       0.037700
@<TRIPOS>BOND
     1     1     2 2   
     2     2     3 1   
     3     2     4 1   
     4     3    11 1   
     5     3    12 1   
     6     3    13 1   
     7     4     5 1   
     8     4    14 1   
     9     5     6 1   
    10     5    15 1   
    11     5    16 1   
    12     6     7 1   
    13     6    17 1   
    14     6    18 1   
    15     7     8 1   
    16     7    19 1   
    17     8     9 2   
    18     8    10 1   
    19    10    20 1   
    20    10    21 1   
    21    10    22 1   
@<TRIPOS>SUBSTRUCTURE
     1 EBC         1 TEMP              0 ****  ****    0 ROOT
