@<TRIPOS>MOLECULE
molecule
   45    48     1     0     0
SMALL
bcc


@<TRIPOS>ATOM
      1 N1           0.0000     0.0000     0.0000 nb         1 EBD      -0.798000
      2 C2           1.3250     0.0000     0.0000 ca         1 EBD       0.944900
      3 N3           2.0190     0.0000     1.1280 nb         1 EBD      -0.843000
      4 C4           1.4010     0.0000     2.3040 ca         1 EBD       0.676200
      5 C5           0.0040    -0.0000     2.3360 ca         1 EBD      -0.355900
      6 C6          -0.6820     0.0010     1.1360 ca         1 EBD       0.498200
      7 NAG          2.1310    -0.0010     3.4830 nu         1 EBD      -0.815600
      8 CAH          3.5310    -0.0010     3.4390 cc         1 EBD       0.509200
      9 NAI          2.0000    -0.0000    -1.2090 nu         1 EBD      -0.756300
     10 CAJ          1.2880    -0.1170    -2.4070 ca         1 EBD       0.167600
     11 CAK          1.7370     0.5330    -3.5500 ca         1 EBD      -0.136500
     12 CAL          1.0320     0.4150    -4.7310 ca         1 EBD      -0.100000
     13 CAM         -0.1200    -0.3490    -4.7780 ca         1 EBD      -0.116300
     14 CAN         -0.5690    -0.9970    -3.6420 ca         1 EBD      -0.100000
     15 CAO          0.1340    -0.8890    -2.4590 ca         1 EBD      -0.136500
     16 NAP          4.3340    -0.0010     4.4760 nd         1 EBD      -0.529800
     17 NAQ          5.6540    -0.0020     4.0080 na         1 EBD      -0.040600
     18 CAR          5.6170    -0.0010     2.6580 cd         1 EBD      -0.039600
     19 CAS          4.3200    -0.0060     2.2770 cc         1 EBD      -0.359300
     20 CAT          6.8120    -0.0010     1.7390 cx         1 EBD      -0.107400
     21 CAU          8.0490    -0.7810     2.1880 cx         1 EBD      -0.125400
     22 CAV         -0.8860    -0.4750    -6.0690 c3         1 EBD       0.024000
     23 CAW          8.0610     0.7490     2.2040 cx         1 EBD      -0.125400
     24 CAX         -0.7370     0.0000     3.6470 c3         1 EBD      -0.023800
     25 CAY         -0.3830    -1.6310    -6.8280 c1         1 EBD       0.219700
     26 NAZ          0.0240    -2.5200    -7.4080 n1         1 EBD      -0.378800
     27 H6          -1.7650     0.0010     1.1180 h4         1 EBD       0.034100
     28 HNAG         2.9320    -0.5930     3.5750 hn         1 EBD       0.508800
     29 HNAI         2.9990    -0.0490    -1.2240 hn         1 EBD       0.462800
     30 HAK          2.7070     1.0140    -3.5530 ha         1 EBD       0.144000
     31 HAL          1.3810     0.9210    -5.6230 ha         1 EBD       0.134000
     32 HAN         -1.4710    -1.5950    -3.6810 ha         1 EBD       0.134000
     33 HAO         -0.1390    -1.5110    -1.6160 ha         1 EBD       0.144000
     34 HNAQ         6.4790    -0.0020     4.5740 hn         1 EBD       0.331700
     35 HAS          4.0990     0.5170     1.3550 ha         1 EBD       0.190000
     36 HAT          6.6960     0.7800     0.9970 hc         1 EBD       0.139700
     37 HAU          8.0000    -1.2010     3.1860 hc         1 EBD       0.081450
     38 HAUA         8.5830    -1.3020     1.4030 hc         1 EBD       0.081450
     39 HAV         -1.8200    -0.9930    -5.8850 hc         1 EBD       0.080700
     40 HAVA        -1.0930     0.5120    -6.4640 hc         1 EBD       0.080700
     41 HAW          8.4670     1.4640     1.4990 hc         1 EBD       0.081450
     42 HAWA         8.1230     0.9390     3.2690 hc         1 EBD       0.081450
     43 HAX         -0.7500     1.0040     4.0550 hc         1 EBD       0.045700
     44 HAXA        -0.2410    -0.6660     4.3430 hc         1 EBD       0.045700
     45 HAXB        -1.7540    -0.3370     3.4870 hc         1 EBD       0.045700
@<TRIPOS>BOND
     1     1     2 ar
     2     1     6 ar
     3     2     3 ar
     4     2     9 1
     5     3     4 ar
     6     4     5 ar
     7     4     7 1
     8     5     6 ar
     9     5    24 1
    10     7     8 1
    11     8    16 2
    12     8    19 1
    13     9    10 1
    14    10    11 ar
    15    10    15 ar
    16    11    12 ar
    17    12    13 ar
    18    13    14 ar
    19    13    22 1
    20    14    15 ar
    21    16    17 1
    22    17    18 1
    23    18    19 2
    24    18    20 1
    25    20    21 1
    26    20    23 1
    27    21    23 1
    28    22    25 1
    29    25    26 3
    30     6    27 1
    31     7    28 1
    32     9    29 1
    33    11    30 1
    34    12    31 1
    35    14    32 1
    36    15    33 1
    37    17    34 1
    38    19    35 1
    39    20    36 1
    40    21    37 1
    41    21    38 1
    42    22    39 1
    43    22    40 1
    44    23    41 1
    45    23    42 1
    46    24    43 1
    47    24    44 1
    48    24    45 1
@<TRIPOS>SUBSTRUCTURE
     1 EBD         1 TEMP              0 ****  ****    0 ROOT
