@<TRIPOS>MOLECULE
EBD
   45    49     1     0     0
SMALL
bcc


@<TRIPOS>ATOM
      1 N1           0.0000     0.0000     0.0000 n2         1 EBD      -0.173000
      2 C2           1.3250     0.0000     0.0000 c2         1 EBD      -0.004000
      3 N3           2.0190     0.0000     1.1280 n2         1 EBD      -0.210000
      4 C4           1.4010     0.0000     2.3040 c2         1 EBD       0.080000
      5 C5           0.0040    -0.0000     2.3360 c2         1 EBD      -0.227000
      6 C6          -0.6820     0.0010     1.1360 c2         1 EBD       0.025000
      7 NAG          2.1310    -0.0010     3.4830 nu         1 EBD      -0.116000
      8 CAH          3.5310    -0.0010     3.4390 c3         1 EBD       0.025000
      9 NAI          2.0000    -0.0000    -1.2090 nu         1 EBD       0.186000
     10 CAJ          1.2880    -0.1170    -2.4070 ca         1 EBD      -0.071000
     11 CAK          1.7370     0.5330    -3.5500 ca         1 EBD      -0.111500
     12 CAL          1.0320     0.4150    -4.7310 ca         1 EBD      -0.067500
     13 CAM         -0.1200    -0.3490    -4.7780 ca         1 EBD      -0.128000
     14 CAN         -0.5690    -0.9970    -3.6420 ca         1 EBD      -0.067500
     15 CAO          0.1340    -0.8890    -2.4590 ca         1 EBD      -0.111500
     16 NAP          4.3340    -0.0010     4.4760 n2         1 EBD      -0.270000
     17 NAQ          5.6540    -0.0020     4.0080 n7         1 EBD       0.316000
     18 CAR          5.6170    -0.0010     2.6580 c2         1 EBD      -0.177000
     19 CAS          4.3200    -0.0060     2.2770 c2         1 EBD      -0.307000
     20 CAT          6.8120    -0.0010     1.7390 cx         1 EBD      -0.110000
     21 CAU          8.0490    -0.7810     2.1880 cx         1 EBD      -0.148000
     22 CAV         -0.8860    -0.4750    -6.0690 c3         1 EBD       0.104000
     23 CAW          8.0610     0.7490     2.2040 cx         1 EBD      -0.148000
     24 CAX         -0.7370     0.0000     3.6470 c3         1 EBD      -0.034000
     25 CAY         -0.3830    -1.6310    -6.8280 c1         1 EBD      -0.153000
     26 NAZ          0.0240    -2.5200    -7.4080 n1         1 EBD      -0.071000
     27 H6          -1.7650     0.0010     1.1180 h4         1 EBD       0.124000
     28 HNAG         2.9320    -0.5930     3.5750 DU         1 EBD       0.229000
     29 HNAI         2.9990    -0.0490    -1.2240 hn         1 EBD       0.087000
     30 HAK          2.7070     1.0140    -3.5530 ha         1 EBD       0.119000
     31 HAL          1.3810     0.9210    -5.6230 ha         1 EBD       0.106500
     32 HAN         -1.4710    -1.5950    -3.6810 ha         1 EBD       0.106500
     33 HAO         -0.1390    -1.5110    -1.6160 ha         1 EBD       0.119000
     34 HNAQ         6.4790    -0.0020     4.5740 hn         1 EBD       0.102000
     35 HAS          4.0990     0.5170     1.3550 ha         1 EBD       0.175000
     36 HAT          6.6960     0.7800     0.9970 hc         1 EBD       0.149000
     37 HAU          8.0000    -1.2010     3.1860 hc         1 EBD       0.088250
     38 HAUA         8.5830    -1.3020     1.4030 hc         1 EBD       0.088250
     39 HAV         -1.8200    -0.9930    -5.8850 hc         1 EBD       0.077000
     40 HAVA        -1.0930     0.5120    -6.4640 hc         1 EBD       0.077000
     41 HAW          8.4670     1.4640     1.4990 hc         1 EBD       0.088250
     42 HAWA         8.1230     0.9390     3.2690 hc         1 EBD       0.088250
     43 HAX         -0.7500     1.0040     4.0550 hc         1 EBD       0.049667
     44 HAXA        -0.2410    -0.6660     4.3430 hc         1 EBD       0.049667
     45 HAXB        -1.7540    -0.3370     3.4870 hc         1 EBD       0.049667
@<TRIPOS>BOND
     1     1     2 1   
     2     1     6 1   
     3     2     3 1   
     4     2     9 1   
     5     3     4 1   
     6     4     5 1   
     7     4     7 1   
     8     5     6 1   
     9     5    24 1   
    10     6    27 1   
    11     7     8 1   
    12     7    28 1   
    13     8    16 1   
    14     8    19 1   
    15     8    28 1   
    16     9    10 1   
    17     9    29 1   
    18    10    11 1   
    19    10    15 1   
    20    11    12 1   
    21    11    30 1   
    22    12    13 1   
    23    12    31 1   
    24    13    14 1   
    25    13    22 1   
    26    14    15 1   
    27    14    32 1   
    28    15    33 1   
    29    16    17 1   
    30    17    18 1   
    31    17    34 1   
    32    18    19 1   
    33    18    20 1   
    34    19    35 1   
    35    20    21 1   
    36    20    23 1   
    37    20    36 1   
    38    21    23 1   
    39    21    37 1   
    40    21    38 1   
    41    22    25 1   
    42    22    39 1   
    43    22    40 1   
    44    23    41 1   
    45    23    42 1   
    46    24    43 1   
    47    24    44 1   
    48    24    45 1   
    49    25    26 1   
@<TRIPOS>SUBSTRUCTURE
     1 EBD         1 TEMP              0 ****  ****    0 ROOT
