@<TRIPOS>MOLECULE
EBE
   41    43     1     0     0
SMALL
bcc


@<TRIPOS>ATOM
      1 C4           0.0000     0.0000     0.0000 ca         1 EBE      -0.074000
      2 C5           1.3800     0.0000     0.0000 ca         1 EBE      -0.098000
      3 C6           2.0750     0.0000     1.2080 cp         1 EBE      -0.023000
      4 C7           3.5590     0.0010     1.2130 cp         1 EBE      -0.274600
      5 C8           4.2820     0.0070     0.0180 ca         1 EBE       0.440200
      6 C3          -0.6930     0.0010     1.1970 ca         1 EBE      -0.070300
      7 C2          -0.0090     0.0020     2.3990 ca         1 EBE      -0.074000
      8 C10          6.2370     0.0020     1.2240 ca         1 EBE       0.591300
      9 C1           1.3710     0.0020     2.4110 ca         1 EBE      -0.098000
     10 C19         -2.4740     1.6190    -0.6990 ca         1 EBE      -0.076000
     11 C12          4.2720     0.0020     2.4150 ca         1 EBE       0.440200
     12 C13         -2.2000     0.0010     1.1910 c3         1 EBE       0.001900
     13 C14         -2.7000     1.3070     0.6280 ca         1 EBE      -0.130300
     14 C18         -2.9270     2.8190    -1.2140 ca         1 EBE      -0.105000
     15 N9           5.6020     0.0070     0.0680 nb         1 EBE      -0.619000
     16 C20         -2.7000    -1.1370     0.3400 c          1 EBE       0.571100
     17 C24          7.7440     0.0030     1.2300 c3         1 EBE      -0.031400
     18 O21         -1.9100    -1.8760    -0.2080 o          1 EBE      -0.610100
     19 N22         -4.0240    -1.3340     0.1870 ns         1 EBE      -0.052400
     20 O23         -4.4940    -2.4040    -0.6140 oh         1 EBE      -0.438100
     21 C17         -3.6120     3.7060    -0.4050 ca         1 EBE      -0.071000
     22 C16         -3.8440     3.3930     0.9220 ca         1 EBE      -0.129000
     23 C15         -3.3850     2.1940     1.4410 ca         1 EBE       0.105900
     24 F25         -3.6120     1.8870     2.7370 f          1 EBE      -0.127900
     25 N11          5.5940     0.0020     2.3740 nb         1 EBE      -0.619000
     26 H1          -0.5410    -0.0000    -0.9380 ha         1 EBE       0.114000
     27 H2           1.9220    -0.0010    -0.9380 ha         1 EBE       0.110500
     28 H3           3.7680     0.0110    -0.9360 h4         1 EBE      -0.007400
     29 H4          -0.5570     0.0030     3.3340 ha         1 EBE       0.114000
     30 H5           1.9060     0.0020     3.3530 ha         1 EBE       0.110500
     31 H7           3.7510     0.0020     3.3640 h4         1 EBE      -0.007400
     32 H8          -2.5650    -0.1190     2.2040 hc         1 EBE       0.054700
     33 H9          -2.7470     3.0640    -2.2540 ha         1 EBE       0.111000
     34 H10          8.1070    -0.9200     0.7940 hc         1 EBE       0.018700
     35 H11          8.1060     0.8440     0.6500 hc         1 EBE       0.018700
     36 H12          8.1010     0.0860     2.2490 hc         1 EBE       0.018700
     37 H13         -4.6760    -0.7440     0.6650 hn         1 EBE       0.160500
     38 H14         -5.3800    -2.6140    -0.3690 ho         1 EBE       0.392000
     39 H15         -3.9680     4.6450    -0.8100 ha         1 EBE       0.109000
     40 H16         -4.3800     4.0880     1.5570 ha         1 EBE       0.121000
     41 H6          -1.9370     0.9250    -1.3350 ha         1 EBE       0.131000
@<TRIPOS>BOND
     1     1     2 ar  
     2     1     6 ar  
     3     1    26 1   
     4     2     3 ar  
     5     2    27 1   
     6     3     4 1   
     7     3     9 ar  
     8     4     5 ar  
     9     4    11 ar  
    10     5    15 ar  
    11     5    28 1   
    12     6     7 ar  
    13     6    12 1   
    14     7     9 ar  
    15     7    29 1   
    16     8    15 ar  
    17     8    17 1   
    18     8    25 ar  
    19     9    30 1   
    20    10    13 ar  
    21    10    14 ar  
    22    10    41 1   
    23    11    25 ar  
    24    11    31 1   
    25    12    13 1   
    26    12    16 1   
    27    12    32 1   
    28    13    23 ar  
    29    14    21 ar  
    30    14    33 1   
    31    16    18 2   
    32    16    19 1   
    33    17    34 1   
    34    17    35 1   
    35    17    36 1   
    36    19    20 1   
    37    19    37 1   
    38    20    38 1   
    39    21    22 ar  
    40    21    39 1   
    41    22    23 ar  
    42    22    40 1   
    43    23    24 1   
@<TRIPOS>SUBSTRUCTURE
     1 EBE         1 TEMP              0 ****  ****    0 ROOT
