@<TRIPOS>MOLECULE
molecule
   12    11     1     0     0
SMALL
bcc


@<TRIPOS>ATOM
      1 C02          0.0000     0.0000     0.0000 c3         1 EBH      -0.107100
      2 C03          1.5300     0.0000     0.0000 c3         1 EBH       0.143100
      3 O04          2.0070     0.0000     1.3470 oh         1 EBH      -0.597800
      4 C05          2.0400     1.2500    -0.7220 c3         1 EBH      -0.005000
      5 Br6          3.9990     1.1720    -0.8630 br         1 EBH      -0.180400
      6 H1          -0.3610     0.8820     0.5150 hc         1 EBH       0.046033
      7 H2          -0.3610    -0.8870     0.5060 hc         1 EBH       0.046033
      8 H3          -0.3610     0.0050    -1.0210 hc         1 EBH       0.046033
      9 H4           1.8910    -0.8840    -0.5110 h1         1 EBH       0.042700
     10 H5           2.4590    -0.8090     1.5200 ho         1 EBH       0.408000
     11 H6           1.6070     1.2960    -1.7140 h1         1 EBH       0.079700
     12 H7           1.7530     2.1320    -0.1620 h1         1 EBH       0.079700
@<TRIPOS>BOND
     1     3     2 1
     2     1     2 1
     3     2     4 1
     4     4     5 1
     5     1     6 1
     6     1     7 1
     7     1     8 1
     8     2     9 1
     9     3    10 1
    10     4    11 1
    11     4    12 1
@<TRIPOS>SUBSTRUCTURE
     1 EBH         1 TEMP              0 ****  ****    0 ROOT
