@<TRIPOS>MOLECULE
EBH
   12    11     1     0     0
SMALL
bcc


@<TRIPOS>ATOM
      1 C02        -0.0370   -0.0160   -0.0640 c3        1 EBH     -0.094100
      2 C03         1.4810   -0.0750    0.0070 c3        1 EBH      0.145100
      3 O04         1.8110   -0.1770    1.3850 oh        1 EBH     -0.594800
      4 C05         2.0780    1.1810   -0.6130 c3        1 EBH     -0.055000
      5 BR6         3.9660    1.0580   -0.9730 br        1 EBH     -0.175400
      6 H1         -0.3640   -0.0370   -1.1300 hc        1 EBH      0.049700
      7 H2         -0.4710   -0.8930    0.4730 hc        1 EBH      0.049700
      8 H3         -0.4130    0.9160    0.4200 hc        1 EBH      0.049700
      9 H4          1.8520   -0.9910   -0.5360 h1        1 EBH      0.047700
     10 H5          2.7710   -0.2540    1.4420 ho        1 EBH      0.408000
     11 H6          1.9400    2.0480    0.0740 h1        1 EBH      0.085200
     12 H7          1.5850    1.3940   -1.5890 h1        1 EBH      0.085200
@<TRIPOS>BOND
     1    1    2 1   
     2    1    6 1   
     3    1    7 1   
     4    1    8 1   
     5    2    3 1   
     6    2    4 1   
     7    2    9 1   
     8    3   10 1   
     9    4    5 1   
    10    4   11 1   
    11    4   12 1   
@<TRIPOS>SUBSTRUCTURE
     1 EBH         1 TEMP              0 ****  ****    0 ROOT
