@<TRIPOS>MOLECULE
molecule
   58    63     1     0     0
SMALL
bcc


@<TRIPOS>ATOM
      1 N1           0.0000     0.0000     0.0000 na         1 EBI      -0.071600
      2 C2           1.3580     0.0000     0.0000 cc         1 EBI       0.145300
      3 C3           1.7680     0.0000     1.2990 cd         1 EBI      -0.347300
      4 C4           0.6280    -0.0000     2.1070 cd         1 EBI       0.378600
      5 N5          -0.4280     0.0010     1.3340 nc         1 EBI      -0.496800
      6 N6           2.1820    -0.0020    -1.1250 nu         1 EBI      -0.727300
      7 C7           0.6170    -0.0010     3.6140 cx         1 EBI      -0.148000
      8 C8           0.7310    -1.3530     4.3210 cx         1 EBI      -0.134400
      9 C9           1.9140    -0.3820     4.3300 cx         1 EBI      -0.134400
     10 C10          6.3650    -0.0050    -3.1240 cc         1 EBI      -0.093100
     11 C11          5.4130    -0.0050    -4.0960 cd         1 EBI      -0.205000
     12 C12          4.1640    -0.0040    -3.4720 cd         1 EBI      -0.151000
     13 C13          4.3980    -0.0030    -2.1100 cc         1 EBI      -0.312600
     14 N14          5.7650    -0.0090    -1.9190 na         1 EBI       0.268200
     15 C15          3.5550    -0.0030    -0.9740 cc         1 EBI       0.821200
     16 N16          4.0950    -0.0020     0.2330 nd         1 EBI      -0.872000
     17 N17          6.2560    -0.0110    -0.6060 nc         1 EBI      -0.644800
     18 C18          5.4210    -0.0020     0.4060 cd         1 EBI       0.961900
     19 C19          5.1310     0.0040     2.9360 c3         1 EBI       0.230800
     20 C20          6.0590    -0.6160     4.0100 c3         1 EBI      -0.107400
     21 C21          7.4400    -0.0430     3.5960 c3         1 EBI      -0.082400
     22 C22          7.3550    -0.0160     2.0560 c3         1 EBI       0.186200
     23 N23          5.9300    -0.0050     1.6970 nh         1 EBI      -0.822300
     24 C27          8.0380     1.2430     1.5190 c3         1 EBI      -0.086100
     25 C28          7.9120    -3.5150     0.7770 ca         1 EBI      -0.080700
     26 C29          9.2800    -3.7530     0.8920 ca         1 EBI      -0.074000
     27 C30          9.8080    -4.8670     0.2640 ca         1 EBI      -0.265300
     28 C31          8.9670    -5.7010    -0.4540 ca         1 EBI       0.621500
     29 N32          7.6750    -5.4460    -0.5440 nb         1 EBI      -0.709000
     30 C33          7.1320    -4.3980     0.0450 ca         1 EBI       0.425200
     31 F34          9.4760    -6.7900    -1.0720 f          1 EBI      -0.222200
     32 H3           2.7950    -0.0000     1.6440 ha         1 EBI       0.202000
     33 HN6          1.7790     0.0170    -2.0400 hn         1 EBI       0.463800
     34 H7           0.0110     0.7320     4.1320 hc         1 EBI       0.095700
     35 H8           0.8370    -2.2130     3.6710 hc         1 EBI       0.077200
     36 H8A          0.1890    -1.4390     5.2550 hc         1 EBI       0.077200
     37 H9           2.7430    -0.6490     3.6860 hc         1 EBI       0.077200
     38 H9A          2.0950     0.1250     5.2700 hc         1 EBI       0.077200
     39 H10          7.4350    -0.0060    -3.2930 h4         1 EBI       0.185000
     40 H11          5.5920     0.0480    -5.1630 ha         1 EBI       0.161000
     41 H12          3.1980    -0.0030    -3.9620 ha         1 EBI       0.145000
     42 H19          4.8690     1.0200     3.2060 h1         1 EBI       0.062200
     43 H19A         4.2410    -0.6020     2.8130 h1         1 EBI       0.062200
     44 H20          6.0550    -1.6970     3.9460 hc         1 EBI       0.059700
     45 H20A         5.7820    -0.2770     5.0010 hc         1 EBI       0.059700
     46 H21          8.2380    -0.6980     3.9230 hc         1 EBI       0.069200
     47 H21A         7.5710     0.9590     3.9890 hc         1 EBI       0.069200
     48 HN25         6.4220    -2.4750     1.8100 hn         1 EBI       0.332500
     49 H27          7.3770     2.0930     1.6430 hc         1 EBI       0.058033
     50 H27A         8.9560     1.4180     2.0660 hc         1 EBI       0.058033
     51 H27B         8.2630     1.1120     0.4670 hc         1 EBI       0.058033
     52 H29          9.9140    -3.0840     1.4610 ha         1 EBI       0.177000
     53 H30         10.8670    -5.0840     0.3320 ha         1 EBI       0.155000
     54 H33          6.0680    -4.2210    -0.0510 h4         1 EBI       0.030100
     55 HN1         -0.5900     0.0000    -0.8090 hn         1 EBI       0.324700
     56 C24          8.0180    -1.2440     1.4850 c          1 EBI       0.668100
     57 N25          7.3310    -2.4000     1.3970 ns         1 EBI      -0.466100
     58 O26          9.1680    -1.1910     1.1050 o          1 EBI      -0.588100
@<TRIPOS>BOND
     1     2     1 1
     2     1     5 1
     3     3     2 2
     4     6     2 1
     5     3     4 1
     6     3    32 1
     7     7     4 1
     8     4     5 2
     9    15     6 1
    10     6    33 1
    11     9     7 1
    12     8     7 1
    13     7    34 1
    14     9     8 1
    15     8    35 1
    16     8    36 1
    17     9    37 1
    18     9    38 1
    19    14    10 1
    20    10    11 2
    21    10    39 1
    22    11    12 1
    23    11    40 1
    24    13    12 2
    25    12    41 1
    26    14    13 1
    27    13    15 1
    28    17    14 1
    29    16    15 2
    30    18    16 1
    31    17    18 2
    32    23    18 1
    33    20    19 1
    34    19    23 1
    35    19    42 1
    36    19    43 1
    37    20    21 1
    38    20    44 1
    39    20    45 1
    40    21    22 1
    41    21    46 1
    42    21    47 1
    43    24    22 1
    44    22    23 1
    45    22    56 1
    46    56    58 2
    47    56    57 1
    48    57    25 1
    49    57    48 1
    50    24    49 1
    51    24    50 1
    52    24    51 1
    53    25    26 ar
    54    25    30 ar
    55    26    27 ar
    56    26    52 1
    57    27    28 ar
    58    27    53 1
    59    29    28 ar
    60    28    31 1
    61    30    29 ar
    62    30    54 1
    63     1    55 1
@<TRIPOS>SUBSTRUCTURE
     1 EBI         1 TEMP              0 ****  ****    0 ROOT
