@<TRIPOS>MOLECULE
molecule
    9     9     1     0     0
SMALL
bcc


@<TRIPOS>ATOM
      1 S1           0.0000     0.0000     0.0000 sh         1 EBJ      -0.283700
      2 C2           1.7620     0.0000     0.0000 cc         1 EBJ      -0.084700
      3 N3           2.5760     0.0000     1.0940 na         1 EBJ      -0.036600
      4 N4           3.8920    -0.0010     0.6060 nd         1 EBJ      -0.161800
      5 N5           3.8430    -0.0010    -0.6810 nc         1 EBJ      -0.343000
      6 C6           2.5750    -0.0050    -1.0890 cc         1 EBJ       0.301200
      7 H1           2.2450    -0.0060    -2.1210 h4         1 EBJ       0.060100
      8 H2          -0.4430     1.2510     0.0270 hs         1 EBJ       0.207800
      9 H3           2.2920     0.0000     2.0530 hn         1 EBJ       0.339700
@<TRIPOS>BOND
     1     5     6 1
     2     5     4 2
     3     6     2 2
     4     4     3 1
     5     2     3 1
     6     2     1 1
     7     6     7 1
     8     1     8 1
     9     3     9 1
@<TRIPOS>SUBSTRUCTURE
     1 EBJ         1 TEMP              0 ****  ****    0 ROOT
