@<TRIPOS>MOLECULE
EBM
   25    25     1     0     0
SMALL
bcc


@<TRIPOS>ATOM
      1 I            0.0000     0.0000     0.0000 i          1 EBM      -0.213900
      2 N            2.7380     0.0000     3.6560 ns         1 EBM      -0.200900
      3 O            0.8450     0.0010     2.4960 o          1 EBM      -0.626100
      4 C1           2.0950     0.0000     0.0000 ca         1 EBM       0.229900
      5 C2           2.7940     0.0000     1.2090 ca         1 EBM      -0.138600
      6 C3           4.1900    -0.0010     1.2000 ca         1 EBM      -0.081000
      7 C4           4.8690    -0.0000    -0.0010 ca         1 EBM      -0.110000
      8 C5           4.1700     0.0000    -1.1950 ca         1 EBM      -0.076000
      9 C6           2.7870    -0.0050    -1.1950 ca         1 EBM      -0.096000
     10 C7           2.0600     0.0000     2.4910 c          1 EBM       0.590700
     11 C8           2.0110     0.0010     4.9280 c3         1 EBM       0.017700
     12 C9           2.8920    -0.6090     6.0190 c3         1 EBM      -0.012100
     13 C10          1.6490     1.4380     5.3070 c3         1 EBM      -0.012100
     14 HN           3.7390    -0.0070     3.6530 hn         1 EBM       0.176500
     15 H3           4.7390    -0.0010     2.1340 ha         1 EBM       0.104000
     16 H4           5.9520     0.0020    -0.0090 ha         1 EBM       0.106000
     17 H5           4.7090    -0.0010    -2.1350 ha         1 EBM       0.106000
     18 H6           2.2460    -0.0040    -2.1330 ha         1 EBM       0.119000
     19 H8           1.1050    -0.5850     4.8260 h1         1 EBM       0.056700
     20 H9           3.7870    -0.0110     6.1380 hc         1 EBM       0.010200
     21 H9A          3.1670    -1.6190     5.7390 hc         1 EBM       0.010200
     22 H9B          2.3460    -0.6310     6.9550 hc         1 EBM       0.010200
     23 H10          0.9760     1.8490     4.5650 hc         1 EBM       0.010200
     24 H10A         1.1650     1.4450     6.2760 hc         1 EBM       0.010200
     25 H10B         2.5500     2.0380     5.3500 hc         1 EBM       0.010200
@<TRIPOS>BOND
     1     1     4 1   
     2     2    10 1   
     3     2    11 1   
     4     2    14 1   
     5     3    10 2   
     6     4     5 ar  
     7     4     9 ar  
     8     5     6 ar  
     9     5    10 1   
    10     6     7 ar  
    11     6    15 1   
    12     7     8 ar  
    13     7    16 1   
    14     8     9 ar  
    15     8    17 1   
    16     9    18 1   
    17    11    12 1   
    18    11    13 1   
    19    11    19 1   
    20    12    20 1   
    21    12    21 1   
    22    12    22 1   
    23    13    23 1   
    24    13    24 1   
    25    13    25 1   
@<TRIPOS>SUBSTRUCTURE
     1 EBM         1 TEMP              0 ****  ****    0 ROOT
