@<TRIPOS>MOLECULE
EBN
   90    91     1     0     0
SMALL
bcc


@<TRIPOS>ATOM
      1 CBE          0.0000     0.0000     0.0000 c          1 EBN       0.571100
      2 OBF          1.2120     0.0000     0.0000 o          1 EBN      -0.651100
      3 CBG         -0.7540     0.0000     1.3050 c3         1 EBN      -0.028100
      4 CBH          0.2260    -0.0060     2.4500 ca         1 EBN      -0.078300
      5 CBI          0.6740    -1.2060     2.9690 ca         1 EBN      -0.089000
      6 CBJ          1.5720    -1.2140     4.0200 ca         1 EBN      -0.084000
      7 CBK          2.0240    -0.0200     4.5530 ca         1 EBN      -0.037600
      8 ClL          3.1520    -0.0280     5.8720 cl         1 EBN       0.034600
      9 CBM          1.5750     1.1830     4.0330 ca         1 EBN      -0.036600
     10 ClN          2.1390     2.6830     4.7000 cl         1 EBN       0.021600
     11 CBO          0.6800     1.1880     2.9780 ca         1 EBN      -0.074000
     12 NBD         -0.6740     0.0050    -1.1670 ns         1 EBN      -0.197900
     13 CAX          0.0580     0.0040    -2.4360 c3         1 EBN      -0.047300
     14 CAV         -0.8030     0.6120    -3.5140 c          1 EBN       0.567100
     15 OAW         -1.9190     1.0040    -3.2480 o          1 EBN      -0.667100
     16 CAY          0.4160    -1.4330    -2.8180 c3         1 EBN      -0.036400
     17 CAZ          1.3910    -2.0070    -1.7870 c3         1 EBN      -0.034400
     18 CBA          1.7490    -3.4440    -2.1700 c3         1 EBN      -0.035400
     19 CBB          2.7230    -4.0180    -1.1400 c3         1 EBN      -0.050200
     20 NBC          3.0670    -5.3990    -1.5060 nz         1 EBN       0.086400
     21 N           -0.3340     0.7160    -4.7730 ns         1 EBN      -0.157900
     22 CA          -1.1710     1.3050    -5.8210 c3         1 EBN      -0.056300
     23 C           -0.7370     0.7810    -7.1650 c          1 EBN       0.565100
     24 O            0.1810    -0.0070    -7.2400 o          1 EBN      -0.635100
     25 CB          -1.0240     2.8280    -5.7950 c3         1 EBN      -0.035400
     26 CG          -1.5800     3.3720    -4.4780 c3         1 EBN      -0.034400
     27 CD          -1.4320     4.8950    -4.4520 c3         1 EBN      -0.035400
     28 CE          -1.9880     5.4400    -3.1350 c3         1 EBN      -0.050200
     29 NZ          -1.8460     6.9010    -3.1110 nz         1 EBN       0.087400
     30 CAA         -4.1410     1.4340   -11.6050 c3         1 EBN      -0.035400
     31 CAB         -3.6220     0.9990   -12.9770 c3         1 EBN       0.132500
     32 NAC         -4.4590     1.5890   -14.0250 nu         1 EBN      -0.490200
     33 CAD         -4.5470     0.9850   -15.2570 c2         1 EBN       0.248100
     34 NAE         -5.3330     1.5380   -16.2390 nz         1 EBN       0.196400
     35 NAF         -3.8860    -0.1140   -15.4920 n2         1 EBN      -0.611100
     36 CAG         -2.1780     1.4760   -13.1510 c3         1 EBN      -0.035400
     37 CAH         -1.3040     0.8600   -12.0570 c3         1 EBN      -0.013400
     38 CAI         -1.8220     1.2940   -10.6840 c3         1 EBN      -0.071700
     39 CAJ         -3.2670     0.8190   -10.5110 c3         1 EBN      -0.013400
     40 CAK         -0.9480     0.6780    -9.5900 c3         1 EBN       0.054000
     41 NAL         -1.3700     1.1880    -8.2830 ns         1 EBN      -0.187900
     42 HBG         -1.3800    -0.8820     1.3600 hc         1 EBN       0.038200
     43 HBGA        -1.3730     0.8870     1.3640 hc         1 EBN       0.038200
     44 HBI          0.3200    -2.1420     2.5520 ha         1 EBN       0.094000
     45 HBJ          1.9230    -2.1550     4.4260 ha         1 EBN       0.118000
     46 HBO          0.3280     2.1290     2.5710 ha         1 EBN       0.110000
     47 HNBD        -1.6750     0.0130    -1.1670 hn         1 EBN       0.206500
     48 HAX          0.9660     0.5860    -2.3290 h1         1 EBN       0.070700
     49 HAY          0.8780    -1.4420    -3.7970 hc         1 EBN       0.028200
     50 HAYA        -0.4840    -2.0360    -2.8380 hc         1 EBN       0.028200
     51 HAZ          2.2910    -1.4040    -1.7670 hc         1 EBN       0.051700
     52 HAZA         0.9290    -1.9980    -0.8080 hc         1 EBN       0.051700
     53 HBAA         0.8490    -4.0470    -2.1900 hc         1 EBN       0.031200
     54 HBAB         2.2120    -3.4530    -3.1490 hc         1 EBN       0.031200
     55 HBB          2.2600    -4.0090    -0.1600 hx         1 EBN       0.090200
     56 HBBA         3.6230    -3.4150    -1.1190 hx         1 EBN       0.090200
     57 HNBC         2.2360    -5.9560    -1.5260 hn         1 EBN       0.225133
     58 HNBA         3.4950    -5.4070    -2.4110 hn         1 EBN       0.225133
     59 HN           0.5990     0.4200    -4.9850 hn         1 EBN       0.207500
     60 HA          -2.2070     1.0400    -5.6470 h1         1 EBN       0.073700
     61 HB          -1.5730     3.2580    -6.6240 hc         1 EBN       0.026200
     62 HBA          0.0240     3.0910    -5.8810 hc         1 EBN       0.026200
     63 HG          -1.0300     2.9420    -3.6490 hc         1 EBN       0.048200
     64 HGA         -2.6270     3.1090    -4.3920 hc         1 EBN       0.048200
     65 HD          -1.9810     5.3250    -5.2810 hc         1 EBN       0.031700
     66 HDA         -0.3840     5.1580    -4.5380 hc         1 EBN       0.031700
     67 HE          -3.0350     5.1780    -3.0490 hx         1 EBN       0.088200
     68 HEA         -1.4390     5.0110    -2.3060 hx         1 EBN       0.088200
     69 HNZ         -0.8780     7.1440    -3.1900 hn         1 EBN       0.226467
     70 HNZA        -2.3530     7.2980    -3.8770 hn         1 EBN       0.226467
     71 HAA         -4.1030     2.5140   -11.5310 hc         1 EBN       0.028450
     72 HAAA        -5.1630     1.0940   -11.4830 hc         1 EBN       0.028450
     73 HAB         -3.6550    -0.0810   -13.0480 h1         1 EBN       0.048700
     74 HNAC        -4.9970     2.4110   -13.8320 hn         1 EBN       0.305800
     75 HNAE        -5.2220     1.0180   -17.0870 hn         1 EBN       0.226133
     76 HNAA        -6.2920     1.5100   -15.9540 hn         1 EBN       0.226133
     77 HNAF        -3.3130    -0.5180   -14.7770 hn         1 EBN       0.385400
     78 HAG         -1.8110     1.1660   -14.1220 hc         1 EBN       0.028450
     79 HAGA        -2.1440     2.5560   -13.0740 hc         1 EBN       0.028450
     80 HAH         -0.2820     1.2000   -12.1790 hc         1 EBN       0.030700
     81 HAHA        -1.3420    -0.2200   -12.1310 hc         1 EBN       0.030700
     82 HAI         -1.7900     2.3740   -10.6140 hc         1 EBN       0.034700
     83 HAJ         -3.6330     1.1290    -9.5400 hc         1 EBN       0.030700
     84 HAJA        -3.3020    -0.2610   -10.5870 hc         1 EBN       0.030700
     85 HAK          0.0880     0.9440    -9.7640 h1         1 EBN       0.039700
     86 HAKA        -1.0520    -0.4000    -9.6080 h1         1 EBN       0.039700
     87 HNAL        -2.1490     1.8140    -8.2180 hn         1 EBN       0.178500
     88 HBC3         3.7100    -5.7710    -0.8360 hn         1 EBN       0.225133
     89 HZ3         -2.2140     7.2580    -2.2510 hn         1 EBN       0.226467
     90 HAE3        -5.0600     2.4890   -16.3890 hn         1 EBN       0.226133
@<TRIPOS>BOND
     1     1     2 2   
     2     1     3 1   
     3     1    12 1   
     4     3     4 1   
     5     3    42 1   
     6     3    43 1   
     7     4     5 ar  
     8     4    11 ar  
     9     5     6 ar  
    10     5    44 1   
    11     6     7 ar  
    12     6    45 1   
    13     7     8 1   
    14     7     9 ar  
    15     9    10 1   
    16     9    11 ar  
    17    11    46 1   
    18    12    13 1   
    19    12    47 1   
    20    13    14 1   
    21    13    16 1   
    22    13    48 1   
    23    14    15 2   
    24    14    21 1   
    25    16    17 1   
    26    16    49 1   
    27    16    50 1   
    28    17    18 1   
    29    17    51 1   
    30    17    52 1   
    31    18    19 1   
    32    18    53 1   
    33    18    54 1   
    34    19    20 1   
    35    19    55 1   
    36    19    56 1   
    37    20    57 1   
    38    20    58 1   
    39    20    88 1   
    40    21    22 1   
    41    21    59 1   
    42    22    23 1   
    43    22    25 1   
    44    22    60 1   
    45    23    24 2   
    46    23    41 1   
    47    25    26 1   
    48    25    61 1   
    49    25    62 1   
    50    26    27 1   
    51    26    63 1   
    52    26    64 1   
    53    27    28 1   
    54    27    65 1   
    55    27    66 1   
    56    28    29 1   
    57    28    67 1   
    58    28    68 1   
    59    29    69 1   
    60    29    70 1   
    61    29    89 1   
    62    30    31 1   
    63    30    39 1   
    64    30    71 1   
    65    30    72 1   
    66    31    32 1   
    67    31    36 1   
    68    31    73 1   
    69    32    33 1   
    70    32    74 1   
    71    33    34 1   
    72    33    35 2   
    73    34    75 1   
    74    34    76 1   
    75    34    90 1   
    76    35    77 1   
    77    36    37 1   
    78    36    78 1   
    79    36    79 1   
    80    37    38 1   
    81    37    80 1   
    82    37    81 1   
    83    38    39 1   
    84    38    40 1   
    85    38    82 1   
    86    39    83 1   
    87    39    84 1   
    88    40    41 1   
    89    40    85 1   
    90    40    86 1   
    91    41    87 1   
@<TRIPOS>SUBSTRUCTURE
     1 EBN         1 TEMP              0 ****  ****    0 ROOT
