@<TRIPOS>MOLECULE
molecule
   90    91     1     0     0
SMALL
bcc


@<TRIPOS>ATOM
      1 CBE          0.0000     0.0000     0.0000 c          1 EBN       0.655100
      2 OBF          1.2120     0.0000     0.0000 o          1 EBN      -0.610100
      3 CBG         -0.7540     0.0000     1.3050 c3         1 EBN      -0.102100
      4 CBH          0.2260    -0.0060     2.4500 ca         1 EBN      -0.074300
      5 CBI          0.6740    -1.2060     2.9690 ca         1 EBN      -0.114000
      6 CBJ          1.5720    -1.2140     4.0200 ca         1 EBN      -0.110000
      7 CBK          2.0240    -0.0200     4.5530 ca         1 EBN       0.041400
      8 ClL          3.1520    -0.0280     5.8720 cl         1 EBN      -0.053400
      9 CBM          1.5750     1.1830     4.0330 ca         1 EBN       0.036400
     10 ClN          2.1390     2.6830     4.7000 cl         1 EBN      -0.063400
     11 CBO          0.6800     1.1880     2.9780 ca         1 EBN      -0.098000
     12 NBD         -0.6740     0.0050    -1.1670 ns         1 EBN      -0.583900
     13 CAX          0.0580     0.0040    -2.4360 c3         1 EBN       0.047700
     14 CAV         -0.8030     0.6120    -3.5140 c          1 EBN       0.654100
     15 OAW         -1.9190     1.0040    -3.2480 o          1 EBN      -0.624100
     16 CAY          0.4160    -1.4330    -2.8180 c3         1 EBN      -0.092400
     17 CAZ          1.3910    -2.0070    -1.7870 c3         1 EBN      -0.070400
     18 CBA          1.7490    -3.4440    -2.1700 c3         1 EBN      -0.114400
     19 CBB          2.7230    -4.0180    -1.1400 c3         1 EBN       0.094800
     20 NBC          3.0670    -5.3990    -1.5060 nz         1 EBN      -0.811600
     21 N           -0.3340     0.7160    -4.7730 ns         1 EBN      -0.562900
     22 CA          -1.1710     1.3050    -5.8210 c3         1 EBN       0.042700
     23 C           -0.7370     0.7810    -7.1650 c          1 EBN       0.652100
     24 O            0.1810    -0.0070    -7.2400 o          1 EBN      -0.595100
     25 CB          -1.0240     2.8280    -5.7950 c3         1 EBN      -0.094400
     26 CG          -1.5800     3.3720    -4.4780 c3         1 EBN      -0.072400
     27 CD          -1.4320     4.8950    -4.4520 c3         1 EBN      -0.115400
     28 CE          -1.9880     5.4400    -3.1350 c3         1 EBN       0.094800
     29 NZ          -1.8460     6.9010    -3.1110 nz         1 EBN      -0.810600
     30 CAA         -4.1410     1.4340   -11.6050 c3         1 EBN      -0.095900
     31 CAB         -3.6220     0.9990   -12.9770 c3         1 EBN       0.251500
     32 NAC         -4.4590     1.5890   -14.0250 nu         1 EBN      -0.858200
     33 CAD         -4.5470     0.9850   -15.2570 c2         1 EBN       0.692100
     34 NAE         -5.3330     1.5380   -16.2390 nz         1 EBN      -0.807600
     35 NAF         -3.8860    -0.1140   -15.4920 n2         1 EBN      -0.781100
     36 CAG         -2.1780     1.4760   -13.1510 c3         1 EBN      -0.095900
     37 CAH         -1.3040     0.8600   -12.0570 c3         1 EBN      -0.069900
     38 CAI         -1.8220     1.2940   -10.6840 c3         1 EBN      -0.097700
     39 CAJ         -3.2670     0.8190   -10.5110 c3         1 EBN      -0.069900
     40 CAK         -0.9480     0.6780    -9.5900 c3         1 EBN       0.116000
     41 NAL         -1.3700     1.1880    -8.2830 ns         1 EBN      -0.580900
     42 HBG         -1.3800    -0.8820     1.3600 hc         1 EBN       0.076700
     43 HBGA        -1.3730     0.8870     1.3640 hc         1 EBN       0.076700
     44 HBI          0.3200    -2.1420     2.5520 ha         1 EBN       0.124000
     45 HBJ          1.9230    -2.1550     4.4260 ha         1 EBN       0.154000
     46 HBO          0.3280     2.1290     2.5710 ha         1 EBN       0.142000
     47 HNBD        -1.6750     0.0100    -1.1670 hn         1 EBN       0.342500
     48 HAX          0.9660     0.5860    -2.3290 h1         1 EBN       0.098700
     49 HAY          0.8780    -1.4420    -3.7970 hc         1 EBN       0.060200
     50 HAYA        -0.4840    -2.0360    -2.8380 hc         1 EBN       0.060200
     51 HAZ          2.2910    -1.4040    -1.7670 hc         1 EBN       0.075700
     52 HAZA         0.9290    -1.9980    -0.8080 hc         1 EBN       0.075700
     53 HBAA         2.2120    -3.4530    -3.1490 hc         1 EBN       0.063200
     54 HBAB         0.8490    -4.0470    -2.1900 hc         1 EBN       0.063200
     55 HBB          3.6230    -3.4150    -1.1190 hx         1 EBN       0.117200
     56 HBBA         2.2600    -4.0090    -0.1600 hx         1 EBN       0.117200
     57 HNBC         2.2370    -5.9570    -1.5190 hn         1 EBN       0.459133
     58 HNBA         3.4890    -5.4070    -2.4140 hn         1 EBN       0.459133
     59 HN           0.6000     0.4220    -4.9850 hn         1 EBN       0.345500
     60 HA          -2.2070     1.0400    -5.6470 h1         1 EBN       0.101700
     61 HB           0.0240     3.0910    -5.8810 hc         1 EBN       0.056700
     62 HBA         -1.5730     3.2580    -6.6240 hc         1 EBN       0.056700
     63 HG          -1.0300     2.9420    -3.6490 hc         1 EBN       0.073200
     64 HGA         -2.6270     3.1090    -4.3920 hc         1 EBN       0.073200
     65 HD          -0.3840     5.1580    -4.5380 hc         1 EBN       0.063200
     66 HDA         -1.9810     5.3250    -5.2810 hc         1 EBN       0.063200
     67 HE          -1.4390     5.0110    -2.3060 hx         1 EBN       0.115200
     68 HEA         -3.0350     5.1780    -3.0490 hx         1 EBN       0.115200
     69 HNZ         -2.3440     7.2980    -3.8840 hn         1 EBN       0.459800
     70 HNZA        -2.2200     7.2590    -2.2540 hn         1 EBN       0.459800
     71 HAA         -5.1630     1.0940   -11.4830 hc         1 EBN       0.055700
     72 HAAA        -4.1030     2.5140   -11.5310 hc         1 EBN       0.055700
     73 HAB         -3.6550    -0.0810   -13.0480 h1         1 EBN       0.099700
     74 HNAC        -4.9750     2.4270   -13.8410 hn         1 EBN       0.452800
     75 HNAE        -6.2380     1.7460   -15.8650 hn         1 EBN       0.470800
     76 HNAA        -4.9080     2.3810   -16.5720 hn         1 EBN       0.470800
     77 HNAF        -3.9490    -0.5550   -16.3880 hn         1 EBN       0.445400
     78 HAG         -1.8110     1.1660   -14.1220 hc         1 EBN       0.055700
     79 HAGA        -2.1440     2.5560   -13.0740 hc         1 EBN       0.055700
     80 HAH         -0.2820     1.2000   -12.1790 hc         1 EBN       0.060700
     81 HAHA        -1.3420    -0.2200   -12.1310 hc         1 EBN       0.060700
     82 HAI         -1.7900     2.3740   -10.6140 hc         1 EBN       0.055700
     83 HAJ         -3.3020    -0.2610   -10.5870 hc         1 EBN       0.060700
     84 HAJA        -3.6330     1.1290    -9.5400 hc         1 EBN       0.060700
     85 HAK          0.0880     0.9440    -9.7640 h1         1 EBN       0.067200
     86 HAKA        -1.0520    -0.4000    -9.6080 h1         1 EBN       0.067200
     87 HNAL        -2.1060     1.8640    -8.2230 hn         1 EBN       0.313500
     88 HBC3         3.7140    -5.7690    -0.8390 hn         1 EBN       0.459133
     89 HZ3         -0.8770     7.1430    -3.1740 hn         1 EBN       0.459800
     90 HAE3        -5.4330     0.8870   -16.9930 hn         1 EBN       0.470800
@<TRIPOS>BOND
     1    41    23 1
     2    22    23 1
     3    23    24 2
     4    14    21 1
     5    21    22 1
     6    21    59 1
     7    22    25 1
     8    22    60 1
     9    26    25 1
    10    25    61 1
    11    25    62 1
    12    26    27 1
    13    28    27 1
    14    27    65 1
    15    27    66 1
    16    28    29 1
    17    28    67 1
    18    28    68 1
    19    26    63 1
    20    26    64 1
    21    29    69 1
    22    29    70 1
    23    31    30 1
    24    30    39 1
    25    30    71 1
    26    30    72 1
    27    32    31 1
    28    31    36 1
    29    31    73 1
    30    33    32 1
    31    32    74 1
    32    35    33 2
    33    33    34 1
    34    34    75 1
    35    34    76 1
    36    35    77 1
    37    36    37 1
    38    36    78 1
    39    36    79 1
    40    37    38 1
    41    37    80 1
    42    37    81 1
    43    39    38 1
    44    38    40 1
    45    38    82 1
    46    39    83 1
    47    39    84 1
    48    40    41 1
    49    40    85 1
    50    40    86 1
    51    41    87 1
    52    13    14 1
    53    15    14 2
    54    16    13 1
    55    13    12 1
    56    13    48 1
    57    16    17 1
    58    16    49 1
    59    16    50 1
    60    18    17 1
    61    17    51 1
    62    17    52 1
    63    19    18 1
    64    18    53 1
    65    18    54 1
    66    19    20 1
    67    19    55 1
    68    19    56 1
    69    20    57 1
    70    20    58 1
    71     1    12 1
    72    12    47 1
    73     2     1 2
    74     1     3 1
    75     3     4 1
    76     3    42 1
    77     3    43 1
    78     5     4 ar
    79     4    11 ar
    80     5     6 ar
    81     5    44 1
    82     6     7 ar
    83     6    45 1
    84     7     8 1
    85     7     9 ar
    86    11     9 ar
    87     9    10 1
    88    11    46 1
    89    88    20 1
    90    89    29 1
    91    90    34 1
@<TRIPOS>SUBSTRUCTURE
     1 EBN         1 TEMP              0 ****  ****    0 ROOT
