@<TRIPOS>MOLECULE
molecule
   35    35     1     0     0
SMALL
bcc


@<TRIPOS>ATOM
      1 C1           0.0000     0.0000     0.0000 ca         1 EBP      -0.082300
      2 C2           1.3810     0.0000     0.0000 ca         1 EBP      -0.105500
      3 C3           2.0730     0.0000     1.1970 ca         1 EBP      -0.125500
      4 C4           1.3820    -0.0000     2.3940 ca         1 EBP      -0.078300
      5 C5           0.0010     0.0020     2.3940 ca         1 EBP      -0.125500
      6 C6          -0.6910     0.0070     1.1970 ca         1 EBP      -0.105500
      7 C7          -0.7540     0.0010    -1.3040 c3         1 EBP      -0.215300
      8 C8           2.1360    -0.0010     3.6990 c3         1 EBP      -0.048800
      9 C9          -0.9540    -1.2630    -4.2270 c3         1 EBP       0.126900
     10 C10         -1.6710    -1.2000    -5.5770 c3         1 EBP      -0.088100
     11 C11         -2.0660    -3.8310    -1.1390 c3         1 EBP       0.126900
     12 C12         -2.8240    -4.6290    -0.0750 c3         1 EBP      -0.088100
     13 P           -1.0590    -1.7170    -1.8300 p5         1 EBP       1.339300
     14 O1          -1.8650    -1.7180    -3.2250 os         1 EBP      -0.526200
     15 O2          -1.9280    -2.4760    -0.7090 os         1 EBP      -0.526200
     16 O3           0.2330    -2.4150    -2.0080 o          1 EBP      -0.797300
     17 H2           1.9230    -0.0030    -0.9380 ha         1 EBP       0.134000
     18 H3           3.1560    -0.0010     1.1960 ha         1 EBP       0.131500
     19 H5          -0.5400     0.0050     3.3330 ha         1 EBP       0.131500
     20 H6          -1.7740     0.0080     1.1980 ha         1 EBP       0.134000
     21 H71         -0.1690     0.5110    -2.0590 hc         1 EBP       0.082200
     22 H72         -1.7000     0.5120    -1.1740 hc         1 EBP       0.082200
     23 H81          1.4600    -0.2510     4.5070 hc         1 EBP       0.043033
     24 H82          2.5580     0.9820     3.8730 hc         1 EBP       0.043033
     25 H83          2.9330    -0.7330     3.6550 hc         1 EBP       0.043033
     26 H91         -0.1470    -1.9840    -4.2800 h1         1 EBP       0.053450
     27 H92         -0.5500    -0.2860    -3.9870 h1         1 EBP       0.053450
     28 H101        -1.9880    -2.1960    -5.8640 hc         1 EBP       0.046700
     29 H102        -2.5380    -0.5550    -5.4960 hc         1 EBP       0.046700
     30 H103        -0.9960    -0.8060    -6.3270 hc         1 EBP       0.046700
     31 H111        -1.0810    -4.2600    -1.2790 h1         1 EBP       0.053450
     32 H112        -2.6110    -3.8660    -2.0740 h1         1 EBP       0.053450
     33 H121        -3.7570    -4.1290     0.1550 hc         1 EBP       0.046700
     34 H122        -3.0310    -5.6240    -0.4510 hc         1 EBP       0.046700
     35 H123        -2.2210    -4.7000     0.8210 hc         1 EBP       0.046700
@<TRIPOS>BOND
     1     1     2 ar
     2     1     6 ar
     3     1     7 1
     4     2     3 ar
     5     2    17 1
     6     3     4 ar
     7     3    18 1
     8     4     5 ar
     9     4     8 1
    10     5     6 ar
    11     5    19 1
    12     6    20 1
    13     7    13 1
    14     7    21 1
    15     7    22 1
    16     8    23 1
    17     8    24 1
    18     8    25 1
    19     9    10 1
    20     9    14 1
    21     9    26 1
    22     9    27 1
    23    10    28 1
    24    10    29 1
    25    10    30 1
    26    11    12 1
    27    11    15 1
    28    11    31 1
    29    11    32 1
    30    12    33 1
    31    12    34 1
    32    12    35 1
    33    13    14 1
    34    13    15 1
    35    13    16 2
@<TRIPOS>SUBSTRUCTURE
     1 EBP         1 TEMP              0 ****  ****    0 ROOT
