@<TRIPOS>MOLECULE
EBP
   35    35     1     0     0
SMALL
bcc


@<TRIPOS>ATOM
      1 C1          0.1120   -0.0060    0.0660 ca        1 EBP     -0.088300
      2 C2          1.4930    0.1010    0.2880 ca        1 EBP     -0.110000
      3 C3          2.0140    0.0090    1.5750 ca        1 EBP     -0.129500
      4 C4          1.1670   -0.1690    2.6750 ca        1 EBP     -0.066300
      5 C5         -0.2130   -0.2510    2.4610 ca        1 EBP     -0.129500
      6 C6         -0.7360   -0.1610    1.1730 ca        1 EBP     -0.110000
      7 C7         -0.4530    0.1420   -1.2960 c3        1 EBP     -0.320300
      8 C8          1.7250   -0.2500    4.0440 c3        1 EBP     -0.056800
      9 C9         -0.9990   -1.5170   -4.7160 c3        1 EBP      0.168400
     10 C10        -2.3340   -2.0200   -5.2230 c3        1 EBP     -0.116100
     11 C11        -1.9400   -3.4120   -1.5750 c3        1 EBP      0.168400
     12 C12        -2.1210   -3.9370   -0.1680 c3        1 EBP     -0.116100
     13 P          -0.6020   -1.2570   -2.1550 p5        1 EBP      1.540300
     14 O1         -1.1750   -0.7190   -3.5660 os        1 EBP     -0.597200
     15 O2         -1.9000   -2.0010   -1.5600 os        1 EBP     -0.597200
     16 O3          0.5200   -2.1660   -2.3610 o         1 EBP     -0.841300
     17 H2          2.1790    0.2460   -0.5620 ha        1 EBP      0.138000
     18 H3          3.1010    0.0790    1.7300 ha        1 EBP      0.135000
     19 H5         -0.8930   -0.3830    3.3160 ha        1 EBP      0.135000
     20 H6         -1.8250   -0.2190    1.0260 ha        1 EBP      0.138000
     21 H71         0.1830    0.8770   -1.8660 hc        1 EBP      0.118700
     22 H72        -1.4560    0.6490   -1.2100 hc        1 EBP      0.118700
     23 H81         2.6950   -0.8060    4.0450 hc        1 EBP      0.046700
     24 H82         1.9120    0.7800    4.4420 hc        1 EBP      0.046700
     25 H83         1.0190   -0.7700    4.7370 hc        1 EBP      0.046700
     26 H91        -0.3010   -2.3690   -4.4800 h1        1 EBP      0.052700
     27 H92        -0.5240   -0.8570   -5.4960 h1        1 EBP      0.052700
     28 H101       -2.1840   -2.5460   -6.1950 hc        1 EBP      0.044200
     29 H102       -2.7980   -2.7290   -4.4960 hc        1 EBP      0.044200
     30 H103       -3.0360   -1.1650   -5.3730 hc        1 EBP      0.044200
     31 H111       -0.9940   -3.8130   -2.0360 h1        1 EBP      0.052700
     32 H112       -2.8260   -3.7090   -2.2070 h1        1 EBP      0.052700
     33 H121       -2.2780   -5.0420   -0.2050 hc        1 EBP      0.044200
     34 H122       -1.2210   -3.7230    0.4560 hc        1 EBP      0.044200
     35 H123       -3.0060   -3.4570    0.3130 hc        1 EBP      0.044200
@<TRIPOS>BOND
     1    1    2 ar  
     2    1    6 ar  
     3    1    7 1   
     4    2    3 ar  
     5    2   17 1   
     6    3    4 ar  
     7    3   18 1   
     8    4    5 ar  
     9    4    8 1   
    10    5    6 ar  
    11    5   19 1   
    12    6   20 1   
    13    7   13 1   
    14    7   21 1   
    15    7   22 1   
    16    8   23 1   
    17    8   24 1   
    18    8   25 1   
    19    9   10 1   
    20    9   14 1   
    21    9   26 1   
    22    9   27 1   
    23   10   28 1   
    24   10   29 1   
    25   10   30 1   
    26   11   12 1   
    27   11   15 1   
    28   11   31 1   
    29   11   32 1   
    30   12   33 1   
    31   12   34 1   
    32   12   35 1   
    33   13   14 1   
    34   13   15 1   
    35   13   16 2   
@<TRIPOS>SUBSTRUCTURE
     1 EBP         1 TEMP              0 ****  ****    0 ROOT
