@<TRIPOS>MOLECULE
EBS
   48    48     1     0     0
SMALL
bcc


@<TRIPOS>ATOM
      1 C1          0.1680   -0.1460    0.4350 c2        1 EBS     -0.365000
      2 C2          1.5350    0.0250    0.3280 c2        1 EBS      0.087000
      3 C3         -0.5830   -0.3010    1.6460 c2        1 EBS     -0.004000
      4 C4          2.4440    0.0620    1.4460 c2        1 EBS     -0.431000
      5 C5         -0.2460    0.1570    2.8540 c2        1 EBS     -0.785000
      6 C6          2.1610    0.2920    2.7270 c1        1 EBS      0.202000
      7 N7          1.9840    0.1720   -1.0030 na        1 EBS     -0.204000
      8 C8          0.9440   -0.0210   -1.9400 c2        1 EBS     -0.036000
      9 S9         -0.5800   -0.2140   -1.0970 ss        1 EBS      0.427000
     10 C10         1.1360    0.1710   -7.7660 c2        1 EBS     -0.416000
     11 C11        -0.2710   -0.0860   -7.6520 c1        1 EBS      0.037000
     12 C12         1.8390    0.3910   -8.9010 c2        1 EBS      0.125000
     13 C13        -1.0540   -0.3680  -10.8230 c1        1 EBS     -0.260000
     14 C14         1.3880    0.3940  -10.2850 c3        1 EBS     -0.599000
     15 C15         0.0600   -0.0250  -10.5520 c1        1 EBS     -0.075000
     16 N16        -0.7060   -0.2310   -6.3540 n3        1 EBS     -0.127000
     17 C17         0.3520   -0.0830   -5.3580 c2        1 EBS     -0.092000
     18 S18         1.8790    0.2040   -6.1840 ss        1 EBS      0.209000
     19 N19         0.1330   -0.1550   -4.0640 n2        1 EBS     -0.090000
     20 N20         1.1780   -0.0130   -3.2490 n2        1 EBS     -0.227000
     21 C22        -3.0490   -0.6500   -6.9970 c3        1 EBS     -0.280000
     22 C24         3.3770    0.2060   -1.3690 c3        1 EBS     -0.011000
     23 C25         4.0530   -1.1510   -1.4980 c3        1 EBS     -0.239000
     24 S26        -1.1980   -0.1140    4.3240 s6        1 EBS      2.872000
     25 O39         2.3940   -0.0070  -12.6740 o         1 EBS     -1.044667
     26 O45        -2.4690   -0.5250    3.8570 o         1 EBS     -1.066333
     27 O46        -0.5080   -1.1190    5.0370 o         1 EBS     -1.066333
     28 O47        -1.2000    1.1440    4.9680 o         1 EBS     -1.066333
     29 O48         3.8620   -0.1540  -10.8410 o         1 EBS     -1.044667
     30 O49         2.3670   -1.9230  -11.2880 o         1 EBS     -1.044667
     31 H3         -1.5340   -0.8660    1.5400 ha        1 EBS      0.157000
     32 H4          3.5130   -0.1560    1.2380 ha        1 EBS      0.171000
     33 H6          0.6190    0.8490    3.0380 h4        1 EBS      0.170000
     34 H12         2.9280    0.6060   -8.8050 ha        1 EBS      0.152000
     35 H13        -2.0320   -0.6940  -11.0520 ha        1 EBS      0.202000
     36 H15         1.5420    1.4380  -10.6900 h1        1 EBS      0.152000
     37 H211       -5.6780   -1.0650   -8.9040 ha        1 EBS     -0.000500
     38 H212       -5.1090   -0.9800   -8.5440 ha        1 EBS     -0.000500
     39 H221       -2.7550   -0.5260   -8.0700 hc        1 EBS      0.099667
     40 H222       -3.4770   -1.6760   -6.8540 hc        1 EBS      0.099667
     41 H223       -3.8450    0.0970   -6.7480 hc        1 EBS      0.099667
     42 H241        3.4680    0.7520   -2.3530 h1        1 EBS      0.102000
     43 H242        3.9180    0.8180   -0.5910 h1        1 EBS      0.102000
     44 H251        5.1210   -0.9930   -1.7840 hc        1 EBS      0.083000
     45 H252        3.5600   -1.7660   -2.2890 hc        1 EBS      0.083000
     46 H253        4.0180   -1.7140   -0.5350 hc        1 EBS      0.083000
     47 C21        -1.9800   -0.4910   -5.9850 c1        1 EBS      0.013000
     48 S23         2.6530   -0.5680  -11.4200 s6        1 EBS      2.850000
@<TRIPOS>BOND
     1    1    2 1   
     2    1    3 1   
     3    1    9 1   
     4    2    4 1   
     5    2    7 1   
     6    3    5 1   
     7    3   31 1   
     8    4    6 1   
     9    4   32 1   
    10    5   24 1   
    11    5   33 1   
    12    7    8 1   
    13    7   22 1   
    14    8    9 1   
    15    8   20 1   
    16   10   11 1   
    17   10   12 1   
    18   10   18 1   
    19   11   16 1   
    20   12   14 1   
    21   12   34 1   
    22   13   15 1   
    23   13   35 1   
    24   14   15 1   
    25   14   36 1   
    26   14   48 1   
    27   16   17 1   
    28   16   47 1   
    29   17   18 1   
    30   17   19 1   
    31   19   20 1   
    32   21   39 1   
    33   21   40 1   
    34   21   41 1   
    35   21   47 1   
    36   22   23 1   
    37   22   42 1   
    38   22   43 1   
    39   23   44 1   
    40   23   45 1   
    41   23   46 1   
    42   24   26 1   
    43   24   27 1   
    44   24   28 1   
    45   25   48 1   
    46   29   48 1   
    47   30   48 1   
    48   37   38 1   
@<TRIPOS>SUBSTRUCTURE
     1 EBS         1 TEMP              0 ****  ****    0 ROOT
