@<TRIPOS>MOLECULE
EBT
   47    44     1     0     0
SMALL
bcc


@<TRIPOS>ATOM
      1 C          -1.2310   -1.6200   -0.4300 c1        1 EBT      0.453000
      2 N           2.6360   -0.1980   -0.4460 n3        1 EBT     -0.155000
      3 O          -0.2530   -1.0060   -0.7610 o         1 EBT     -0.223500
      4 CA          3.8690   -0.7300    0.0570 cx        1 EBT     -0.122000
      5 CB          3.9080   -2.0930    0.7150 cx        1 EBT     -0.185000
      6 CG          4.1250   -0.8670    1.5630 cx        1 EBT     -0.068000
      7 OAA         0.2580    1.0700   -2.2810 oh        1 EBT     -0.094000
      8 OAB         3.6990    1.0680   -2.0140 os        1 EBT     -0.166000
      9 NAF         4.8450    4.9270   -2.6120 n3        1 EBT     -0.364000
     10 CAJ         6.1390    4.8140   -3.2420 c3        1 EBT     -0.092000
     11 CAK         1.3010    1.5110   -1.7020 c1        1 EBT      0.163000
     12 CAM         2.5410    0.6990   -1.4240 c2        1 EBT      0.143000
     13 CAP         7.5030    6.4420   -1.8490 c3        1 EBT     -0.059000
     14 CAR         2.6940    0.9550   -5.3390 c1        1 EBT     -0.086000
     15 CAS         6.4850    7.0420   -1.0380 c1        1 EBT     -0.181000
     16 CAT         3.0780    1.4100   -4.3000 c1        1 EBT     -0.285000
     17 CAU         5.6580    7.5600   -0.3450 c1        1 EBT     -0.210000
     18 CAV         3.5980    2.0240   -3.1160 c3        1 EBT      0.094000
     19 CD1         3.0630   -0.4740    2.5380 c3        1 EBT     -0.200500
     20 CD2         5.5090   -0.5450    2.0280 c3        1 EBT     -0.200500
     21 OXT        -2.1890   -2.2240   -0.1010 o         1 EBT     -0.223500
     22 HN          0.0650    1.7060    0.4360 ha        1 EBT      0.004500
     23 HA          1.7940   -0.4670    0.0380 hn        1 EBT      0.278000
     24 HB          4.7320   -0.4320   -0.5850 h1        1 EBT      0.178000
     25 HBA         2.9750   -2.6710    0.8480 hc        1 EBT      0.137500
     26 HG          4.7680   -2.7460    0.4710 hc        1 EBT      0.137500
     27 HOAA        0.2270    0.1280   -2.5700 ho        1 EBT      0.243000
     28 HNAF        5.9710    4.5080   -4.3150 h1        1 EBT      0.085000
     29 HNAA        4.9490    5.2020   -1.6520 hn        1 EBT      0.149000
     30 HAJ         4.2930    5.6260   -3.0740 hn        1 EBT      0.149000
     31 HAK         6.6930    3.9750   -2.7310 h1        1 EBT      0.085000
     32 HAR         2.3520    0.5530   -6.2640 ha        1 EBT      0.247000
     33 HAS         7.9090    5.5310   -1.3240 hc        1 EBT      0.106000
     34 HAT         8.3570    7.1730   -1.9490 hc        1 EBT      0.106000
     35 HAU         4.6830    2.3250   -3.2350 h1        1 EBT      0.175000
     36 HAV         4.9340    8.0300    0.2720 ha        1 EBT      0.227000
     37 HD1         2.9880    0.6390    2.6040 hc        1 EBT      0.095500
     38 HD1A        2.0640   -0.8890    2.2570 hc        1 EBT      0.095500
     39 HD1B        3.3230   -0.8670    3.5540 hc        1 EBT      0.095500
     40 HD2         5.7370   -1.1230    2.9590 hc        1 EBT      0.095500
     41 HD2A        5.5970    0.5450    2.2580 hc        1 EBT      0.095500
     42 HD2B        6.2700   -0.8110    1.2540 hc        1 EBT      0.095500
     43 H2          2.9860    2.9100   -2.7820 h1        1 EBT      0.175000
     44 HAF3        0.2000    1.0410    0.4250 ha        1 EBT      0.004500
     45 CAL         7.0260    6.0570   -3.2380 c3        1 EBT     -0.193000
     46 HAL         6.4830    6.9200   -3.7050 hc        1 EBT      0.097500
     47 HALA        7.9260    5.8430   -3.8730 hc        1 EBT      0.097500
@<TRIPOS>BOND
     1    1    3 1
     2    1   21 1
     3    2    4 1
     4    2   12 1
     5    2   23 1
     6    4    5 1
     7    4    6 1
     8    4   24 1
     9    5    6 1
    10    5   25 1
    11    5   26 1
    12    6   19 1
    13    6   20 1
    14    7   11 1
    15    7   27 1
    16    8   12 1
    17    8   18 1
    18    9   10 1
    19    9   29 1
    20    9   30 1
    21   10   28 1
    22   10   31 1
    23   10   45 1
    24   11   12 1
    25   13   15 1
    26   13   33 1
    27   13   34 1
    28   13   45 1
    29   14   16 1
    30   14   32 1
    31   15   17 1
    32   16   18 1
    33   17   36 1
    34   18   35 1
    35   18   43 1
    36   19   37 1
    37   19   38 1
    38   19   39 1
    39   20   40 1
    40   20   41 1
    41   20   42 1
    42   22   44 1
    43   45   46 1
    44   45   47 1
@<TRIPOS>SUBSTRUCTURE
     1 EBT         1 TEMP              0 ****  ****    0 ROOT
