@<TRIPOS>MOLECULE
EBW
   68    69     1     0     0
SMALL
bcc


@<TRIPOS>ATOM
      1 C1           0.0000     0.0000     0.0000 c          1 EBW       0.597100
      2 C2           1.5070     0.0000     0.0000 c3         1 EBW      -0.114900
      3 C5          -0.7540     0.0000     1.3040 c3         1 EBW      -0.114900
      4 C6           2.0170    -0.0000    -1.4420 c3         1 EBW       0.022900
      5 C7           3.5240     0.0010    -1.4420 ca         1 EBW      -0.019300
      6 C8           4.2160    -1.1960    -1.4420 ca         1 EBW      -0.071000
      7 C9           5.5980    -1.1960    -1.4420 ca         1 EBW      -0.055000
      8 C10          6.2890     0.0020    -1.4420 ca         1 EBW      -0.287400
      9 C11          5.5970     1.1990    -1.4420 ca         1 EBW      -0.055000
     10 N1          -5.0950    -0.0010     5.9340 n4         1 EBW       0.263800
     11 N2           7.6870     0.0020    -1.4400 n4         1 EBW       0.263800
     12 C12          4.2150     1.1980    -1.4470 ca         1 EBW      -0.071000
     13 C13         -2.2580    -0.0010     1.0250 c3         1 EBW       0.022900
     14 C14         -3.0120    -0.0010     2.3300 ca         1 EBW      -0.019300
     15 C15         -3.3580     1.1960     2.9280 ca         1 EBW      -0.071000
     16 C16         -4.0490     1.1960     4.1250 ca         1 EBW      -0.055000
     17 C17         -4.3960    -0.0020     4.7230 ca         1 EBW      -0.287400
     18 C18         -4.0450    -1.1990     4.1270 ca         1 EBW      -0.055000
     19 C19         -3.3570    -1.1990     2.9280 ca         1 EBW      -0.071000
     20 C20         -6.3790     0.6910     5.7570 c3         1 EBW      -0.005650
     21 C21         -4.3020     0.6910     6.9580 c3         1 EBW      -0.005650
     22 C22         -5.3410    -1.3870     6.3570 c3         1 EBW       0.022000
     23 C23         -6.0950    -1.3870     7.6610 c2         1 EBW      -0.271700
     24 C24          8.1760     1.3880    -1.4410 c3         1 EBW       0.022000
     25 C25          8.1760    -0.6900    -0.2400 c3         1 EBW      -0.005650
     26 C26          8.1780    -0.6910    -2.6390 c3         1 EBW      -0.005650
     27 C27          9.6830     1.3880    -1.4400 c2         1 EBW      -0.271700
     28 C28         10.3390     2.0380    -2.3690 c2         1 EBW      -0.024000
     29 C29         -7.2280    -2.0370     7.7630 c2         1 EBW      -0.024000
     30 O1          -0.6040     0.0000    -1.0460 o          1 EBW      -0.531100
     31 H22          1.8680    -0.8840     0.5110 hc         1 EBW       0.036700
     32 H21          1.8680     0.8850     0.5110 hc         1 EBW       0.036700
     33 H52         -0.4930     0.8850     1.8720 hc         1 EBW       0.036700
     34 H51         -0.4920    -0.8840     1.8730 hc         1 EBW       0.036700
     35 H62          1.6560     0.8840    -1.9530 hc         1 EBW       0.048700
     36 H61          1.6570    -0.8850    -1.9530 hc         1 EBW       0.048700
     37 H8           3.6740    -2.1340    -1.4420 ha         1 EBW       0.133500
     38 H9           6.1400    -2.1340    -1.4410 ha         1 EBW       0.129000
     39 H11          6.1380     2.1370    -1.4440 ha         1 EBW       0.129000
     40 H12          3.6730     2.1360    -1.4470 ha         1 EBW       0.133500
     41 H132        -2.5190    -0.8860     0.4570 hc         1 EBW       0.048700
     42 H131        -2.5200     0.8830     0.4560 hc         1 EBW       0.048700
     43 H15         -3.0870     2.1340     2.4590 ha         1 EBW       0.133500
     44 H16         -4.3210     2.1340     4.5930 ha         1 EBW       0.129000
     45 H18         -4.3150    -2.1370     4.5960 ha         1 EBW       0.129000
     46 H19         -3.0820    -2.1370     2.4620 ha         1 EBW       0.133500
     47 H203        -6.1980     1.7250     5.4930 hx         1 EBW       0.073367
     48 H202        -6.9420     0.6480     6.6820 hx         1 EBW       0.073367
     49 H201        -6.9440     0.2090     4.9680 hx         1 EBW       0.073367
     50 H213        -3.4710     0.0630     7.2570 hx         1 EBW       0.073367
     51 H212        -4.9260     0.8980     7.8190 hx         1 EBW       0.073367
     52 H211        -3.9240     1.6220     6.5540 hx         1 EBW       0.073367
     53 H222        -4.3950    -1.8980     6.4870 hx         1 EBW       0.081700
     54 H221        -5.9260    -1.8970     5.6010 hx         1 EBW       0.081700
     55 H23         -5.7010    -0.8490     8.5150 ha         1 EBW       0.136000
     56 H242         7.8140     1.8990    -0.5570 hx         1 EBW       0.081700
     57 H241         7.8150     1.8980    -2.3260 hx         1 EBW       0.081700
     58 H253         8.0180    -0.0620     0.6290 hx         1 EBW       0.073367
     59 H252         7.6370    -1.6210    -0.1150 hx         1 EBW       0.073367
     60 H251         9.2340    -0.8960    -0.3480 hx         1 EBW       0.073367
     61 H263         7.7780    -0.2100    -3.5240 hx         1 EBW       0.073367
     62 H262         7.8590    -1.7260    -2.6150 hx         1 EBW       0.073367
     63 H261         9.2600    -0.6470    -2.6630 hx         1 EBW       0.073367
     64 H27         10.2250     0.8500    -0.6710 ha         1 EBW       0.136000
     65 H282         9.7970     2.5760    -3.1380 ha         1 EBW       0.103000
     66 H281        11.4220     2.0380    -2.3680 ha         1 EBW       0.103000
     67 H292        -7.6220    -2.5750     6.9090 ha         1 EBW       0.103000
     68 H291        -7.7700    -2.0370     8.7010 ha         1 EBW       0.103000
@<TRIPOS>BOND
     1     1     2 1   
     2     1     3 1   
     3     1    30 2   
     4     2     4 1   
     5     2    31 1   
     6     2    32 1   
     7     3    13 1   
     8     3    33 1   
     9     3    34 1   
    10     4     5 1   
    11     4    35 1   
    12     4    36 1   
    13     5     6 ar  
    14     5    12 ar  
    15     6     7 ar  
    16     6    37 1   
    17     7     8 ar  
    18     7    38 1   
    19     8     9 ar  
    20     8    11 1   
    21     9    12 ar  
    22     9    39 1   
    23    10    17 1   
    24    10    20 1   
    25    10    21 1   
    26    10    22 1   
    27    11    24 1   
    28    11    25 1   
    29    11    26 1   
    30    12    40 1   
    31    13    14 1   
    32    13    41 1   
    33    13    42 1   
    34    14    15 ar  
    35    14    19 ar  
    36    15    16 ar  
    37    15    43 1   
    38    16    17 ar  
    39    16    44 1   
    40    17    18 ar  
    41    18    19 ar  
    42    18    45 1   
    43    19    46 1   
    44    20    47 1   
    45    20    48 1   
    46    20    49 1   
    47    21    50 1   
    48    21    51 1   
    49    21    52 1   
    50    22    23 1   
    51    22    53 1   
    52    22    54 1   
    53    23    29 2   
    54    23    55 1   
    55    24    27 1   
    56    24    56 1   
    57    24    57 1   
    58    25    58 1   
    59    25    59 1   
    60    25    60 1   
    61    26    61 1   
    62    26    62 1   
    63    26    63 1   
    64    27    28 2   
    65    27    64 1   
    66    28    65 1   
    67    28    66 1   
    68    29    67 1   
    69    29    68 1   
@<TRIPOS>SUBSTRUCTURE
     1 EBW         1 TEMP              0 ****  ****    0 ROOT
