@<TRIPOS>MOLECULE
EBY
   64    68     1     0     0
SMALL
bcc


@<TRIPOS>ATOM
      1 N1           0.0000     0.0000     0.0000 nz         1 EBY       0.034400
      2 N3           6.4870     0.3280     2.6890 n3         1 EBY      -0.573600
      3 C4           0.3920     1.3750    -4.1280 ca         1 EBY      -0.230200
      4 C5           2.3300     0.7330    -3.1890 cc         1 EBY      -0.204100
      5 C6           1.5800     1.1890    -2.1730 cd         1 EBY      -0.276400
      6 C7           1.9780     1.2500    -0.7210 c3         1 EBY       0.089800
      7 C8           1.4690     0.0000     0.0000 c3         1 EBY      -0.151500
      8 C10          3.7190    -0.3980     3.0720 c3         1 EBY       0.006700
      9 C15          8.1430     3.2000     2.0370 cc         1 EBY      -0.275100
     10 C17         10.2330     3.8150     4.9310 ca         1 EBY      -0.088000
     11 C20          9.6160     1.1150     4.6290 ca         1 EBY      -0.042000
     12 C21          9.1250     2.0470     3.7130 ca         1 EBY      -0.077800
     13 C22          6.0160    -1.0100     2.3090 c3         1 EBY       0.147300
     14 C24          0.3010     1.6190    -2.7450 ca         1 EBY      -0.105800
     15 N            1.6360     0.8330    -4.3640 na         1 EBY       0.395600
     16 O            1.2430     0.3600     2.3210 o          1 EBY      -0.638100
     17 C1          -1.9130     2.4690    -3.0320 ca         1 EBY      -0.058300
     18 C11          4.2480     0.9940     3.4270 c3         1 EBY      -0.037900
     19 C12          5.4310     1.3330     2.5150 c3         1 EBY       0.147300
     20 C14          8.2860     1.9530     2.5160 cd         1 EBY      -0.101400
     21 C16          9.4360     3.4110     3.8640 ca         1 EBY      -0.228200
     22 C18         10.7060     2.8800     5.8240 ca         1 EBY      -0.077000
     23 C19         10.3980     1.5340     5.6700 ca         1 EBY      -0.056600
     24 C2          -1.8300     2.2290    -4.3970 ca         1 EBY      -0.077000
     25 C23          4.8520    -1.4180     3.2140 c3         1 EBY      -0.037900
     26 C25         -0.8640     2.1690    -2.2090 ca         1 EBY      -0.138000
     27 C3          -0.6880     1.6870    -4.9470 ca         1 EBY      -0.057000
     28 C9           1.9710     0.0000     1.4210 c          1 EBY       0.547100
     29 N2           3.2300    -0.3980     1.6900 ns         1 EBY      -0.121900
     30 N4           8.8240     4.0840     2.8300 na         1 EBY       0.365600
     31 Cl          11.0100     0.3750     6.8090 cl         1 EBY      -0.025400
     32 H1          -0.3380    -0.0540     0.9400 hn         1 EBY       0.242800
     33 H2          -0.3500     0.8290    -0.4390 hn         1 EBY       0.242800
     34 H5           3.3310     0.3310    -3.0910 h4         1 EBY       0.147000
     35 H6           1.5640     2.1380    -0.2580 hc         1 EBY       0.047700
     36 H7           3.0590     1.2820    -0.6520 hc         1 EBY       0.047700
     37 H8           1.8290    -0.8860    -0.5100 hx         1 EBY       0.089700
     38 H9           2.9120    -0.6600     3.7460 h1         1 EBY       0.066700
     39 H10          6.7800     0.3870     1.4380 h1         1 EBY       0.079200
     40 H11          8.4060    -0.1180     1.9700 h1         1 EBY       0.079200
     41 H14          9.3830     0.0630     4.5130 ha         1 EBY       0.114000
     42 H15          5.6880    -1.0010     1.2770 h1         1 EBY       0.011200
     43 H16          6.8260    -1.7190     2.4300 h1         1 EBY       0.011200
     44 H17          1.9820     0.5570    -5.2620 hn         1 EBY       0.131700
     45 H21          3.4620     1.7240     3.2780 hc         1 EBY       0.041950
     46 H22          4.5720     1.0080     4.4610 hc         1 EBY       0.041950
     47 H23          5.0920     1.3010     1.4870 h1         1 EBY       0.011200
     48 H24          5.8100     2.3210     2.7470 h1         1 EBY       0.011200
     49 H25         11.3270     3.1930     6.6550 ha         1 EBY       0.117000
     50 H26         -2.6530     2.5120    -5.0420 ha         1 EBY       0.124000
     51 H27          4.4950    -2.3980     2.9200 hc         1 EBY       0.041950
     52 H28          5.1840    -1.4430     4.2450 hc         1 EBY       0.041950
     53 H29         -0.8850     2.4820    -1.1720 ha         1 EBY       0.099000
     54 H30         -0.6370     1.5080    -6.0140 ha         1 EBY       0.116000
     55 H31          3.8560    -0.6180     0.9410 hn         1 EBY       0.185500
     56 H32          8.8710     5.0720     2.6790 hn         1 EBY       0.117700
     57 C           -3.1710     3.0620    -2.4540 c3         1 EBY       0.058200
     58 H12          7.6690     3.4500     1.0960 h4         1 EBY       0.137000
     59 H18         -4.0090     2.3930    -2.6110 hc         1 EBY       0.016033
     60 H19         -3.0280     3.2300    -1.3940 hc         1 EBY       0.016033
     61 H20         -3.3680     4.0100    -2.9400 hc         1 EBY       0.016033
     62 H13         -0.3210    -0.7980    -0.5120 hn         1 EBY       0.242800
     63 C13          7.6930     0.6970     1.9340 c3         1 EBY       0.093000
     64 H1A         10.4790     4.8620     5.0590 ha         1 EBY       0.106000
@<TRIPOS>BOND
     1     1     7 1   
     2     1    32 1   
     3     1    33 1   
     4     1    62 1   
     5     2    13 1   
     6     2    19 1   
     7     2    63 1   
     8     3    14 ar  
     9     3    15 1   
    10     3    27 ar  
    11     4     5 2   
    12     4    15 1   
    13     4    34 1   
    14     5     6 1   
    15     5    14 1   
    16     6     7 1   
    17     6    35 1   
    18     6    36 1   
    19     7    28 1   
    20     7    37 1   
    21     8    18 1   
    22     8    25 1   
    23     8    29 1   
    24     8    38 1   
    25     9    20 2   
    26     9    30 1   
    27     9    58 1   
    28    10    21 ar  
    29    10    22 ar  
    30    10    64 1   
    31    11    12 ar  
    32    11    23 ar  
    33    11    41 1   
    34    12    20 1   
    35    12    21 ar  
    36    13    25 1   
    37    13    42 1   
    38    13    43 1   
    39    14    26 ar  
    40    15    44 1   
    41    16    28 2   
    42    17    24 ar  
    43    17    26 ar  
    44    17    57 1   
    45    18    19 1   
    46    18    45 1   
    47    18    46 1   
    48    19    47 1   
    49    19    48 1   
    50    20    63 1   
    51    21    30 1   
    52    22    23 ar  
    53    22    49 1   
    54    23    31 1   
    55    24    27 ar  
    56    24    50 1   
    57    25    51 1   
    58    25    52 1   
    59    26    53 1   
    60    27    54 1   
    61    28    29 1   
    62    29    55 1   
    63    30    56 1   
    64    39    63 1   
    65    40    63 1   
    66    57    59 1   
    67    57    60 1   
    68    57    61 1   
@<TRIPOS>SUBSTRUCTURE
     1 EBY         1 TEMP              0 ****  ****    0 ROOT
