@<TRIPOS>MOLECULE
molecule
   55    60     1     0     0
SMALL
bcc


@<TRIPOS>ATOM
      1 O23          0.0000     0.0000     0.0000 o          1 EC2      -0.811800
      2 C21          1.3430     0.0000     0.0000 c          1 EC2       0.893600
      3 O22          1.9480    -0.0010    -1.0470 o          1 EC2      -0.811800
      4 C28          2.0970     0.0000     1.3040 c3         1 EC2      -0.023300
      5 C29          2.1260     1.4230     1.8570 c3         1 EC2       0.070700
      6 C6           1.4710     1.4770     3.2130 ca         1 EC2      -0.060300
      7 C5           0.3660     2.2820     3.4150 ca         1 EC2      -0.103500
      8 C4          -0.2350     2.3300     4.6590 ca         1 EC2      -0.137000
      9 C3           0.2690     1.5740     5.7010 ca         1 EC2      -0.138000
     10 C2           1.3740     0.7690     5.4980 ca         1 EC2      -0.137000
     11 C1           1.9720     0.7160     4.2530 ca         1 EC2      -0.103500
     12 S30          3.8960     1.8140     1.9890 ss         1 EC2      -0.272700
     13 N27          3.4330    -0.5480     1.0780 n          1 EC2      -0.273000
     14 C26          3.6900    -1.7980     0.5900 c          1 EC2       0.700700
     15 O26          2.7540    -2.5330     0.3140 o          1 EC2      -0.632500
     16 C22          4.4810     0.2580     1.3790 cc         1 EC2       0.206200
     17 C23          5.7880    -0.1650     1.2010 cd         1 EC2      -0.173200
     18 C18          6.9280     0.7580     1.5480 cx         1 EC2      -0.059500
     19 C20          6.6950     1.7830     2.6600 cx         1 EC2      -0.153900
     20 C19          6.7670     2.2400     1.2010 cx         1 EC2      -0.153900
     21 C24          6.0550    -1.4350     0.7050 cd         1 EC2       0.017800
     22 C25          4.9900    -2.2560     0.3980 cc         1 EC2      -0.272200
     23 C17          7.4740    -1.9050     0.5070 c3         1 EC2       0.009100
     24 C16          7.9840    -2.5130     1.7870 ca         1 EC2      -0.025300
     25 C7           8.6820    -1.7530     2.6750 ca         1 EC2      -0.130000
     26 C8           9.1630    -2.2980     3.8640 ca         1 EC2      -0.147000
     27 C9           8.9490    -3.6070     4.1720 ca         1 EC2      -0.141000
     28 C10          8.2320    -4.4220     3.2800 ca         1 EC2      -0.014000
     29 C15          7.7400    -3.8670     2.0730 ca         1 EC2      -0.013000
     30 C11          7.9910    -5.7770     3.5640 ca         1 EC2      -0.122000
     31 C12          7.2930    -6.5380     2.6760 ca         1 EC2      -0.149000
     32 C13          6.8130    -5.9930     1.4870 ca         1 EC2      -0.149000
     33 C14          7.0180    -4.6820     1.1840 ca         1 EC2      -0.100000
     34 H28          1.5780    -0.6350     2.0120 h1         1 EC2       0.094700
     35 H29          1.6410     2.1040     1.1680 h1         1 EC2       0.118700
     36 H5          -0.0290     2.8740     2.5990 ha         1 EC2       0.140500
     37 H1           2.8380     0.0850     4.0940 ha         1 EC2       0.140500
     38 H4          -1.1010     2.9620     4.8180 ha         1 EC2       0.120000
     39 H3          -0.2000     1.6140     6.6770 ha         1 EC2       0.115000
     40 H2           1.7680     0.1750     6.3140 ha         1 EC2       0.120000
     41 H25          5.1650    -3.2830     0.1010 ha         1 EC2       0.154000
     42 H18          7.9430     0.3850     1.4800 hc         1 EC2       0.076700
     43 H201         7.5600     2.0190     3.2670 hc         1 EC2       0.078450
     44 H202         5.7050     1.7780     3.1000 hc         1 EC2       0.078450
     45 H191         5.8210     2.5140     0.7500 hc         1 EC2       0.078450
     46 H192         7.6760     2.7550     0.9170 hc         1 EC2       0.078450
     47 H171         7.5020    -2.6470    -0.2820 hc         1 EC2       0.056200
     48 H172         8.0980    -1.0630     0.2330 hc         1 EC2       0.056200
     49 H7           9.5120    -1.0850     2.4800 ha         1 EC2       0.134000
     50 H8           9.7270    -1.7320     4.5950 ha         1 EC2       0.121000
     51 H9           9.4070    -3.9110     5.1060 ha         1 EC2       0.124000
     52 H11          8.3240    -6.3450     4.4240 ha         1 EC2       0.126000
     53 H14          7.1390    -4.8440     0.1200 ha         1 EC2       0.148000
     54 H12          7.1200    -7.5870     2.8820 ha         1 EC2       0.119000
     55 H13          6.2780    -6.7040     0.8690 ha         1 EC2       0.130000
@<TRIPOS>BOND
     1     1     2 1
     2     2     3 1
     3     2     4 1
     4     4     5 1
     5     4    13 1
     6     5     6 1
     7     5    12 1
     8     6     7 ar
     9     6    11 ar
    10     7     8 ar
    11     8     9 ar
    12     9    10 ar
    13    10    11 ar
    14    12    16 1
    15    13    14 1
    16    13    16 1
    17    14    15 2
    18    14    22 1
    19    16    17 2
    20    17    18 1
    21    17    21 1
    22    18    19 1
    23    18    20 1
    24    19    20 1
    25    21    22 2
    26    21    23 1
    27    23    24 1
    28    24    25 ar
    29    24    29 ar
    30    25    26 ar
    31    26    27 ar
    32    27    28 ar
    33    28    29 ar
    34    28    30 ar
    35    29    33 ar
    36    30    31 ar
    37    31    32 ar
    38    32    33 ar
    39     4    34 1
    40     5    35 1
    41     7    36 1
    42    11    37 1
    43     8    38 1
    44     9    39 1
    45    10    40 1
    46    22    41 1
    47    18    42 1
    48    19    43 1
    49    19    44 1
    50    20    45 1
    51    20    46 1
    52    23    47 1
    53    23    48 1
    54    25    49 1
    55    26    50 1
    56    27    51 1
    57    30    52 1
    58    33    53 1
    59    31    54 1
    60    32    55 1
@<TRIPOS>SUBSTRUCTURE
     1 EC2         1 TEMP              0 ****  ****    0 ROOT
