@<TRIPOS>MOLECULE
EC4
   61    65     1     0     0
SMALL
bcc


@<TRIPOS>ATOM
      1 N1           0.0000     0.0000     0.0000 na         1 EC4       0.402600
      2 N3          -3.5530    -2.8910    -7.8230 n3         1 EC4      -0.526600
      3 C4           1.3780     0.0000     0.0000 ca         1 EC4      -0.216200
      4 C5           2.3350     0.0000     1.0090 ca         1 EC4      -0.071000
      5 C6           3.6740     0.0000     0.6820 ca         1 EC4      -0.025600
      6 C7           4.0780     0.0000    -0.6470 ca         1 EC4      -0.083000
      7 C8           3.1540    -0.0010    -1.6530 ca         1 EC4      -0.091000
      8 C10          0.3660    -1.4550    -5.6590 c          1 EC4       0.537100
      9 C13         -2.3050    -3.5790    -7.4700 c3         1 EC4       0.166800
     10 C15         -5.9770    -3.0420    -7.9220 cc         1 EC4      -0.166400
     11 C17         -7.6860    -2.5110    -9.3580 ca         1 EC4      -0.229200
     12 C20         -6.8280    -4.0460   -11.5070 ca         1 EC4      -0.054600
     13 C21         -6.0880    -4.0410   -10.3560 ca         1 EC4      -0.044000
     14 C22         -6.5070    -3.2750    -9.2670 ca         1 EC4      -0.073800
     15 C24         -2.4140    -0.7260    -7.9510 c3         1 EC4      -0.031400
     16 N            1.9040    -1.9850    -3.8530 nz         1 EC4       0.035400
     17 C            0.5760    -1.4400    -4.1660 c3         1 EC4      -0.058500
     18 O            1.3210    -1.5220    -6.4040 o          1 EC4      -0.630100
     19 C1           0.4800    -0.0030    -3.6500 c3         1 EC4      -0.035200
     20 C11         -1.0850    -1.4070    -7.6150 c3         1 EC4      -0.016300
     21 C12         -1.1210    -2.8540    -8.1130 c3         1 EC4      -0.031400
     22 C16         -6.8160    -2.1920    -7.3090 cd         1 EC4      -0.267100
     23 C18         -8.4220    -2.5310   -10.5370 ca         1 EC4      -0.087000
     24 C19         -7.9930    -3.2940   -11.6000 ca         1 EC4      -0.076000
     25 C2           0.5670    -0.0020    -2.1460 cc         1 EC4      -0.222400
     26 C23         -3.5610    -1.5140    -7.3130 c3         1 EC4       0.166800
     27 C3          -0.4650    -0.0020    -1.2870 cd         1 EC4      -0.228100
     28 C9           1.7920    -0.0010    -1.3440 ca         1 EC4      -0.119800
     29 N2          -0.8810    -1.3920    -6.1640 ns         1 EC4      -0.132900
     30 N4          -7.8420    -1.8610    -8.1530 na         1 EC4       0.366600
     31 Cl           4.8670     0.0010     1.9430 cl         1 EC4       0.028600
     32 Cl1         -6.3070    -4.9990   -12.8610 cl         1 EC4      -0.023400
     33 H1          -0.5750     0.0000     0.8190 hn         1 EC4       0.132700
     34 H3           2.0290    -0.0000     2.0480 ha         1 EC4       0.126000
     35 H4           5.1340     0.0000    -0.8880 ha         1 EC4       0.126000
     36 H5           3.4760    -0.0010    -2.6870 ha         1 EC4       0.092000
     37 H6          -2.3420    -4.5990    -7.8330 h1         1 EC4       0.008950
     38 H7          -2.1850    -3.5780    -6.3930 h1         1 EC4       0.008950
     39 H8          -5.1810    -4.6300   -10.2900 ha         1 EC4       0.115000
     40 H9          -2.4100     0.2850    -7.5600 hc         1 EC4       0.035950
     41 H10         -2.5470    -0.7030    -9.0260 hc         1 EC4       0.035950
     42 H11          1.9560    -2.1990    -2.8760 hn         1 EC4       0.238467
     43 H12          2.0570    -2.8180    -4.3850 hn         1 EC4       0.238467
     44 H14         -0.1840    -2.0470    -3.6880 hx         1 EC4       0.064700
     45 H15         -0.2970    -0.7200    -3.4140 hc         1 EC4       0.069700
     46 H16         -0.0670     0.7690    -4.1780 hc         1 EC4       0.069700
     47 H17         -0.2760    -0.8780    -8.1040 h1         1 EC4       0.066700
     48 H18         -0.6410    -2.6290    -9.0580 hc         1 EC4       0.035950
     49 H19         -0.3070    -3.3370    -7.5870 hc         1 EC4       0.035950
     50 H20         -4.7630    -3.5820    -6.2570 h1         1 EC4       0.008700
     51 H21         -4.6380    -4.6750    -7.6420 h1         1 EC4       0.008700
     52 H22         -6.7000    -1.8250    -6.2970 h4         1 EC4       0.135000
     53 H23         -9.3310    -1.9480   -10.6200 ha         1 EC4       0.107000
     54 H24         -8.5680    -3.3080   -12.5170 ha         1 EC4       0.118000
     55 H25         -4.5040    -1.0430    -7.5640 h1         1 EC4       0.008950
     56 H26         -3.4330    -1.5280    -6.2370 h1         1 EC4       0.008950
     57 H27         -1.5100    -0.0010    -1.5700 h4         1 EC4       0.147000
     58 H28         -1.6640    -1.2820    -5.5500 hn         1 EC4       0.182500
     59 H29         -8.5950    -1.2420    -7.9260 hn         1 EC4       0.118700
     60 HN3          2.6060    -1.3110    -4.0900 hn         1 EC4       0.238467
     61 C14         -4.7210    -3.6380    -7.3380 c3         1 EC4       0.254000
@<TRIPOS>BOND
     1     1     3 1   
     2     1    27 1   
     3     1    33 1   
     4     2     9 1   
     5     2    26 1   
     6     2    61 1   
     7     3     4 ar  
     8     3    28 ar  
     9     4     5 ar  
    10     4    34 1   
    11     5     6 ar  
    12     5    31 1   
    13     6     7 ar  
    14     6    35 1   
    15     7    28 ar  
    16     7    36 1   
    17     8    17 1   
    18     8    18 2   
    19     8    29 1   
    20     9    21 1   
    21     9    37 1   
    22     9    38 1   
    23    10    14 1   
    24    10    22 2   
    25    10    61 1   
    26    11    14 ar  
    27    11    23 ar  
    28    11    30 1   
    29    12    13 ar  
    30    12    24 ar  
    31    12    32 1   
    32    13    14 ar  
    33    13    39 1   
    34    15    20 1   
    35    15    26 1   
    36    15    40 1   
    37    15    41 1   
    38    16    17 1   
    39    16    42 1   
    40    16    43 1   
    41    16    60 1   
    42    17    19 1   
    43    17    44 1   
    44    19    25 1   
    45    19    45 1   
    46    19    46 1   
    47    20    21 1   
    48    20    29 1   
    49    20    47 1   
    50    21    48 1   
    51    21    49 1   
    52    22    30 1   
    53    22    52 1   
    54    23    24 ar  
    55    23    53 1   
    56    24    54 1   
    57    25    27 2   
    58    25    28 1   
    59    26    55 1   
    60    26    56 1   
    61    27    57 1   
    62    29    58 1   
    63    30    59 1   
    64    50    61 1   
    65    51    61 1   
@<TRIPOS>SUBSTRUCTURE
     1 EC4         1 TEMP              0 ****  ****    0 ROOT
