@<TRIPOS>MOLECULE
EC5
   58    62     1     0     0
SMALL
bcc


@<TRIPOS>ATOM
      1 O26          0.0000     0.0000     0.0000 o          1 EC5      -0.670500
      2 C26          1.2210     0.0000     0.0000 c          1 EC5       0.581700
      3 N27          1.8910     0.0000     1.1670 n          1 EC5       0.258000
      4 C28          1.1460    -0.0010     2.4290 c3         1 EC5      -0.163300
      5 C29          0.2660     1.2490     2.5010 c3         1 EC5       0.006900
      6 C6           1.1400     2.4760     2.5540 ca         1 EC5      -0.071300
      7 C5           1.5270     3.0990     1.3820 ca         1 EC5      -0.103500
      8 C4           2.3280     4.2250     1.4310 ca         1 EC5      -0.111000
      9 C3           2.7410     4.7270     2.6500 ca         1 EC5      -0.130000
     10 C2           2.3530     4.1050     3.8220 ca         1 EC5      -0.111000
     11 C1           1.5480     2.9820     3.7740 ca         1 EC5      -0.103500
     12 C21          0.2790    -1.2310     2.5000 c          1 EC5       0.986600
     13 O23         -0.4980    -1.4440     3.5740 o          1 EC5      -0.869300
     14 O22          0.2830    -2.0260     1.5910 o          1 EC5      -0.869300
     15 C25          1.9170    -0.0060    -1.2130 cc         1 EC5      -0.241200
     16 C24          3.2970    -0.0060    -1.2080 cd         1 EC5      -0.021200
     17 C23          3.9720    -0.0010     0.0110 cd         1 EC5      -0.137200
     18 C18          5.4780    -0.0000     0.0420 cx         1 EC5      -0.017500
     19 C20          6.1690     1.1080     0.8390 cx         1 EC5      -0.095900
     20 C19          6.2000     1.1330    -0.6900 cx         1 EC5      -0.095900
     21 C22          3.2540    -0.0010     1.1900 cc         1 EC5       0.015200
     22 S30          4.1050    -0.0010     2.7330 ss         1 EC5      -0.081800
     23 O56          3.6930    -1.5110     3.2880 oh         1 EC5      -0.493800
     24 C17          4.0650    -0.0130    -2.5040 c3         1 EC5       0.050100
     25 C16          4.4340    -1.4300    -2.8620 ca         1 EC5      -0.045300
     26 C7           5.6400    -1.9390    -2.4880 ca         1 EC5      -0.121000
     27 C8           5.9970    -3.2460    -2.8100 ca         1 EC5      -0.098000
     28 C9           5.1520    -4.0520    -3.5080 ca         1 EC5      -0.101000
     29 C10          3.8980    -3.5620    -3.9110 ca         1 EC5      -0.029000
     30 C15          3.5320    -2.2340    -3.5800 ca         1 EC5      -0.021000
     31 C11          2.9980    -4.3660    -4.6320 ca         1 EC5      -0.097000
     32 C12          1.7920    -3.8570    -5.0050 ca         1 EC5      -0.098000
     33 C13          1.4340    -2.5500    -4.6840 ca         1 EC5      -0.099000
     34 C14          2.2750    -1.7460    -3.9770 ca         1 EC5      -0.088000
     35 H25          1.3760    -0.0100    -2.1520 ha         1 EC5       0.129000
     36 H291        -0.3680     1.2950     1.6240 hc         1 EC5       0.061700
     37 H292        -0.3500     1.2060     3.3910 hc         1 EC5       0.061700
     38 HA           1.2030     2.7060     0.4260 ha         1 EC5       0.115000
     39 HB           1.2440     2.4940     4.6920 ha         1 EC5       0.115000
     40 HC           2.6320     4.7140     0.5130 ha         1 EC5       0.091500
     41 HD           3.3700     5.6080     2.6880 ha         1 EC5       0.089000
     42 HE           2.6750     4.5000     4.7780 ha         1 EC5       0.091500
     43 H171         3.4500     0.4090    -3.2900 hc         1 EC5       0.032200
     44 H172         4.9660     0.5780    -2.3940 hc         1 EC5       0.032200
     45 H18          6.0020    -0.9480     0.0380 hc         1 EC5       0.063700
     46 H201         5.5090     1.8300     1.3050 hc         1 EC5       0.047200
     47 H202         7.0980     0.8280     1.3210 hc         1 EC5       0.047200
     48 H191         7.1480     0.8680    -1.1420 hc         1 EC5       0.047200
     49 H192         5.5590     1.8700    -1.1590 hc         1 EC5       0.047200
     50 H56          4.2970    -1.7740     3.9630 ho         1 EC5       0.419000
     51 H7           6.3310    -1.3180    -1.9310 ha         1 EC5       0.113000
     52 H8           6.9630    -3.6260    -2.5000 ha         1 EC5       0.092000
     53 H9           5.4440    -5.0660    -3.7510 ha         1 EC5       0.099000
     54 H11          3.2630    -5.3840    -4.8890 ha         1 EC5       0.099000
     55 H14          1.9840    -0.7310    -3.7350 ha         1 EC5       0.124000
     56 H12          1.1040    -4.4760    -5.5680 ha         1 EC5       0.094000
     57 H13          0.4680    -2.1700    -4.9930 ha         1 EC5       0.100000
     58 H28          1.8420    -0.0010     3.2590 h1         1 EC5       0.074700
@<TRIPOS>BOND
     1     1     2 2   
     2     2     3 1   
     3     2    15 1   
     4     3     4 1   
     5     3    21 1   
     6     4     5 1   
     7     4    12 1   
     8     4    58 1   
     9     5     6 1   
    10     5    36 1   
    11     5    37 1   
    12     6     7 ar  
    13     6    11 ar  
    14     7     8 ar  
    15     7    38 1   
    16     8     9 ar  
    17     8    40 1   
    18     9    10 ar  
    19     9    41 1   
    20    10    11 ar  
    21    10    42 1   
    22    11    39 1   
    23    12    13 1   
    24    12    14 1   
    25    15    16 2   
    26    15    35 1   
    27    16    17 1   
    28    16    24 1   
    29    17    18 1   
    30    17    21 2   
    31    18    19 1   
    32    18    20 1   
    33    18    45 1   
    34    19    20 1   
    35    19    46 1   
    36    19    47 1   
    37    20    48 1   
    38    20    49 1   
    39    21    22 1   
    40    22    23 1   
    41    23    50 1   
    42    24    25 1   
    43    24    43 1   
    44    24    44 1   
    45    25    26 ar  
    46    25    30 ar  
    47    26    27 ar  
    48    26    51 1   
    49    27    28 ar  
    50    27    52 1   
    51    28    29 ar  
    52    28    53 1   
    53    29    30 ar  
    54    29    31 ar  
    55    30    34 ar  
    56    31    32 ar  
    57    31    54 1   
    58    32    33 ar  
    59    32    56 1   
    60    33    34 ar  
    61    33    57 1   
    62    34    55 1   
@<TRIPOS>SUBSTRUCTURE
     1 EC5         1 TEMP              0 ****  ****    0 ROOT
