@<TRIPOS>MOLECULE
EC7
   57    58     1     0     0
SMALL
bcc


@<TRIPOS>ATOM
      1 C4           0.0000     0.0000     0.0000 c3         1 EC7       0.056000
      2 N1           1.4650     0.0000     0.0000 n          1 EC7      -0.144800
      3 C8           2.1970     0.0000     1.2690 c3         1 EC7       0.050000
      4 N2           5.2590    -2.1920     4.8270 n3         1 EC7      -0.542600
      5 C9           2.4010    -1.4420     1.7390 c3         1 EC7      -0.077000
      6 C10          1.0470    -2.1500     1.8140 c3         1 EC7      -0.021100
      7 C11          3.3080    -2.1780     0.7500 c3         1 EC7      -0.021100
      8 C12          3.0530    -1.4390     3.1230 c3         1 EC7      -0.037700
      9 C13          4.4120    -0.7380     3.0480 c3         1 EC7      -0.041400
     10 C14          5.0850    -0.7910     4.4220 c3         1 EC7       0.157800
     11 O            3.3500    -0.0780    -1.1690 o          1 EC7      -0.628100
     12 C3           2.1390    -0.0000    -1.1670 c          1 EC7       0.592100
     13 C17          3.2570    -2.8810     3.5950 c3         1 EC7      -0.041400
     14 C16          3.9650    -2.8730     4.9530 c3         1 EC7       0.157800
     15 H1          -0.3610    -0.5890     0.8350 h1         1 EC7       0.040200
     16 H2          -0.3610    -0.4280    -0.9270 h1         1 EC7       0.040200
     17 H4           1.6300     0.5460     2.0130 h1         1 EC7       0.038700
     18 H5           3.1610     0.4740     1.1290 h1         1 EC7       0.038700
     19 H7           0.6210    -2.2220     0.8200 hc         1 EC7       0.017200
     20 H8           0.3790    -1.5840     2.4530 hc         1 EC7       0.017200
     21 H9           1.1810    -3.1440     2.2220 hc         1 EC7       0.017200
     22 H10          3.6010    -3.1320     1.1710 hc         1 EC7       0.017200
     23 H11          4.1920    -1.5820     0.5580 hc         1 EC7       0.017200
     24 H12          2.7740    -2.3410    -0.1780 hc         1 EC7       0.017200
     25 H13          2.4160    -0.9170     3.8270 hc         1 EC7       0.024700
     26 H14          4.2680     0.2960     2.7570 hc         1 EC7       0.031950
     27 H15          5.0370    -1.2400     2.3200 hc         1 EC7       0.031950
     28 H16          4.4640    -0.2810     5.1470 h1         1 EC7       0.005700
     29 H17          6.0540    -0.3100     4.3660 h1         1 EC7       0.005700
     30 H18          6.9900    -1.8090     5.9460 h1         1 EC7      -0.000967
     31 H19          5.4830    -1.7900     6.8720 h1         1 EC7      -0.000967
     32 H20          6.1720    -3.3280     6.3340 h1         1 EC7      -0.000967
     33 H22          3.8650    -3.4140     2.8750 hc         1 EC7       0.031950
     34 H24          4.1260    -3.8930     5.2810 h1         1 EC7       0.005700
     35 H25          3.3510    -2.3490     5.6760 h1         1 EC7       0.005700
     36 C6          -0.5100     1.4370     0.1310 cx         1 EC7      -0.151700
     37 C7          -2.0220     1.6590     0.0630 cx         1 EC7      -0.075400
     38 C1           1.3880     0.0980    -2.4710 c3         1 EC7       0.031500
     39 N3           2.1900    -0.5080    -3.5440 n7         1 EC7      -0.557200
     40 C5           1.3340    -0.9720    -4.6430 c3         1 EC7       0.172100
     41 C2          -1.2870     1.7980     1.3980 cx         1 EC7      -0.075400
     42 H3           2.2940    -3.3680     3.6940 hc         1 EC7       0.031950
     43 H6           0.0860     2.2430    -0.2800 hc         1 EC7       0.069700
     44 H21         -2.3380     2.5880    -0.3950 hc         1 EC7       0.045950
     45 H23         -2.6210     0.7640    -0.0500 hc         1 EC7       0.045950
     46 H26          0.4450    -0.4280    -2.3850 h1         1 EC7       0.047700
     47 H28          2.8440     0.1650    -3.8910 hn         1 EC7       0.267800
     48 H29          0.7030    -0.1580    -4.9780 h1         1 EC7      -0.001633
     49 H30          0.7150    -1.7900    -4.2970 h1         1 EC7      -0.001633
     50 H31          1.9540    -1.3100    -5.4650 h1         1 EC7      -0.001633
     51 H32         -1.1540     2.8120     1.7550 hc         1 EC7       0.045950
     52 H33         -1.4370     0.9870     2.1010 hc         1 EC7       0.045950
     53 C18          1.1240     1.5680    -2.7990 c3         1 EC7      -0.024100
     54 H27          1.5410     2.1930    -2.0190 hc         1 EC7       0.013700
     55 H34          1.5870     1.8160    -3.7460 hc         1 EC7       0.013700
     56 H35          0.0560     1.7370    -2.8650 hc         1 EC7       0.013700
     57 C15          6.0260    -2.2860     6.0770 c3         1 EC7       0.187100
@<TRIPOS>BOND
     1     1     2 1   
     2     1    15 1   
     3     1    16 1   
     4     1    36 1   
     5     2     3 1   
     6     2    12 1   
     7     3     5 1   
     8     3    17 1   
     9     3    18 1   
    10     4    10 1   
    11     4    14 1   
    12     4    57 1   
    13     5     6 1   
    14     5     7 1   
    15     5     8 1   
    16     6    19 1   
    17     6    20 1   
    18     6    21 1   
    19     7    22 1   
    20     7    23 1   
    21     7    24 1   
    22     8     9 1   
    23     8    13 1   
    24     8    25 1   
    25     9    10 1   
    26     9    26 1   
    27     9    27 1   
    28    10    28 1   
    29    10    29 1   
    30    11    12 2   
    31    12    38 1   
    32    13    14 1   
    33    13    33 1   
    34    13    42 1   
    35    14    34 1   
    36    14    35 1   
    37    30    57 1   
    38    31    57 1   
    39    32    57 1   
    40    36    37 1   
    41    36    41 1   
    42    36    43 1   
    43    37    41 1   
    44    37    44 1   
    45    37    45 1   
    46    38    39 1   
    47    38    46 1   
    48    38    53 1   
    49    39    40 1   
    50    39    47 1   
    51    40    48 1   
    52    40    49 1   
    53    40    50 1   
    54    41    51 1   
    55    41    52 1   
    56    53    54 1   
    57    53    55 1   
    58    53    56 1   
@<TRIPOS>SUBSTRUCTURE
     1 EC7         1 TEMP              0 ****  ****    0 ROOT
