@<TRIPOS>MOLECULE
EC8
   36    38     1     0     0
SMALL
bcc


@<TRIPOS>ATOM
      1 C2           0.0000     0.0000     0.0000 ca         1 EC8       0.182900
      2 C3           1.3880     0.0000     0.0000 ca         1 EC8      -0.234300
      3 C4           2.0820     0.0000     1.1920 ca         1 EC8      -0.034000
      4 C5           1.3930    -0.0020     2.4000 ca         1 EC8      -0.131400
      5 C10         -7.0380    -1.1300     3.8350 ca         1 EC8      -0.035000
      6 C11         -6.3590    -2.2900     4.1530 ca         1 EC8      -0.188000
      7 C12         -4.9720    -2.3020     4.1700 ca         1 EC8       0.215100
      8 C15         -6.3410     0.0280     3.5290 ca         1 EC8      -0.137000
      9 C13         -4.2640    -1.1320     3.8640 ca         1 EC8      -0.197600
     10 C14         -4.9630     0.0330     3.5360 ca         1 EC8      -0.053000
     11 C1          -0.6940    -0.0010     1.1940 ca         1 EC8      -0.157000
     12 C6           1.4420    -0.0040     4.7750 c          1 EC8       0.529500
     13 C16          2.1380     0.0010    -1.3070 c3         1 EC8       0.652200
     14 C7          -0.0490    -0.0060     4.7750 c          1 EC8       0.541500
     15 C8          -0.0040    -0.0020     2.4010 ca         1 EC8      -0.049400
     16 C9          -2.7890    -1.1310     3.8790 c          1 EC8       0.615700
     17 F1          -0.6730     0.0050    -1.1710 f          1 EC8      -0.111900
     18 F2           1.7990     1.1430    -2.0390 f          1 EC8      -0.203300
     19 F3           3.5150     0.0020    -1.0530 f          1 EC8      -0.203300
     20 F4           1.8000    -1.1410    -2.0400 f          1 EC8      -0.203300
     21 N1           2.1010    -0.0020     3.5990 ns         1 EC8      -0.001100
     22 N2          -0.7110    -0.0030     3.6000 n          1 EC8       0.089400
     23 N3          -2.1110    -0.0030     3.5850 ns         1 EC8      -0.176500
     24 O1           2.0560    -0.0040     5.8220 o          1 EC8      -0.591500
     25 O2          -0.6630    -0.0070     5.8230 o          1 EC8      -0.573500
     26 O3          -2.1840    -2.1490     4.1580 o          1 EC8      -0.591100
     27 H1           3.1650     0.0000     1.1880 ha         1 EC8       0.135000
     28 H2          -8.1210    -1.1260     3.8250 ha         1 EC8       0.105000
     29 H3          -6.9110    -3.1920     4.3890 ha         1 EC8       0.118000
     30 H4          -6.8820     0.9320     3.2770 ha         1 EC8       0.110000
     31 H5          -4.4220     0.9410     3.2970 ha         1 EC8       0.098000
     32 H6          -1.7780    -0.0010     1.1910 ha         1 EC8       0.138000
     33 H7           3.1020    -0.0010     3.5870 hn         1 EC8       0.188500
     34 H8          -2.6090     0.8450     3.3980 hn         1 EC8       0.202500
     35 H9          -4.6360    -3.7870     5.2930 ho         1 EC8       0.406000
     36 O4          -4.3040    -3.4400     4.4810 oh         1 EC8      -0.454100
@<TRIPOS>BOND
     1     1     2 ar  
     2     1    11 ar  
     3     1    17 1   
     4     2     3 ar  
     5     2    13 1   
     6     3     4 ar  
     7     3    27 1   
     8     4    15 ar  
     9     4    21 1   
    10     5     6 ar  
    11     5     8 ar  
    12     5    28 1   
    13     6     7 ar  
    14     6    29 1   
    15     7     9 ar  
    16     7    36 1   
    17     8    10 ar  
    18     8    30 1   
    19     9    10 ar  
    20     9    16 1   
    21    10    31 1   
    22    11    15 ar  
    23    11    32 1   
    24    12    14 1   
    25    12    21 1   
    26    12    24 2   
    27    13    18 1   
    28    13    19 1   
    29    13    20 1   
    30    14    22 1   
    31    14    25 2   
    32    15    22 1   
    33    16    23 1   
    34    16    26 2   
    35    21    33 1   
    36    22    23 1   
    37    23    34 1   
    38    35    36 1   
@<TRIPOS>SUBSTRUCTURE
     1 EC8         1 TEMP              0 ****  ****    0 ROOT
