@<TRIPOS>MOLECULE
molecule
   36    38     1     0     0
SMALL
bcc


@<TRIPOS>ATOM
      1 C2           0.0000     0.0000     0.0000 ca         1 EC8       0.190900
      2 C3           1.3880     0.0000     0.0000 ca         1 EC8      -0.219300
      3 C4           2.0820     0.0000     1.1920 ca         1 EC8      -0.073000
      4 C5           1.3930    -0.0020     2.4000 ca         1 EC8       0.007600
      5 C10         -7.0380    -1.1300     3.8350 ca         1 EC8      -0.072000
      6 C11         -6.3590    -2.2900     4.1530 ca         1 EC8      -0.200000
      7 C12         -4.9720    -2.3020     4.1700 ca         1 EC8       0.189100
      8 C15         -6.3410     0.0280     3.5290 ca         1 EC8      -0.156000
      9 C13         -4.2640    -1.1320     3.8640 ca         1 EC8      -0.169600
     10 C14         -4.9630     0.0330     3.5360 ca         1 EC8      -0.083000
     11 C1          -0.6940    -0.0010     1.1940 ca         1 EC8      -0.183000
     12 C6           1.4420    -0.0040     4.7750 c          1 EC8       0.641500
     13 C16          2.1380     0.0010    -1.3070 c3         1 EC8       0.685200
     14 C7          -0.0490    -0.0060     4.7750 c          1 EC8       0.637500
     15 C8          -0.0040    -0.0020     2.4010 ca         1 EC8       0.086600
     16 C9          -2.7890    -1.1310     3.8790 c          1 EC8       0.679700
     17 F1          -0.6730     0.0050    -1.1710 f          1 EC8      -0.115900
     18 F2           1.7990     1.1430    -2.0390 f          1 EC8      -0.216967
     19 F3           3.5150     0.0020    -1.0530 f          1 EC8      -0.216967
     20 F4           1.8000    -1.1410    -2.0400 f          1 EC8      -0.216967
     21 N1           2.1010    -0.0020     3.5990 ns         1 EC8      -0.450100
     22 N2          -0.7110    -0.0030     3.6000 n          1 EC8      -0.204600
     23 N3          -2.1110    -0.0030     3.5850 ns         1 EC8      -0.445500
     24 O1           2.0560    -0.0040     5.8220 o          1 EC8      -0.552500
     25 O2          -0.6630    -0.0070     5.8230 o          1 EC8      -0.529500
     26 O3          -2.1840    -2.1490     4.1580 o          1 EC8      -0.543100
     27 H1           3.1650     0.0000     1.1880 ha         1 EC8       0.166000
     28 H2          -8.1210    -1.1260     3.8250 ha         1 EC8       0.139000
     29 H3          -6.9110    -3.1920     4.3890 ha         1 EC8       0.145000
     30 H4          -6.8820     0.9320     3.2770 ha         1 EC8       0.139000
     31 H5          -4.4220     0.9410     3.2970 ha         1 EC8       0.126000
     32 H6          -1.7780    -0.0010     1.1910 ha         1 EC8       0.169000
     33 H7           3.1020    -0.0010     3.5870 hn         1 EC8       0.350500
     34 H8          -2.6090     0.8450     3.3980 hn         1 EC8       0.343500
     35 H9          -4.6360    -3.7870     5.2930 ho         1 EC8       0.428000
     36 O4          -4.3040    -3.4400     4.4810 oh         1 EC8      -0.476100
@<TRIPOS>BOND
     1     8    10 ar
     2     8     5 ar
     3    10     9 ar
     4     5     6 ar
     5    20    13 1
     6    17     1 1
     7    23    22 1
     8    23    16 1
     9    11     1 ar
    10    11    15 ar
    11     9    16 1
    12     9     7 ar
    13     1     2 ar
    14     6     7 ar
    15    22    15 1
    16    22    14 1
    17    15     4 ar
    18     2    13 1
    19     2     3 ar
    20    13    19 1
    21    13    18 1
    22    16    26 2
    23     7    36 1
    24    25    14 2
    25    14    12 1
    26     4     3 ar
    27     4    21 1
    28    12    21 1
    29    12    24 2
    30     3    27 1
    31     5    28 1
    32     6    29 1
    33     8    30 1
    34    10    31 1
    35    11    32 1
    36    21    33 1
    37    23    34 1
    38    36    35 1
@<TRIPOS>SUBSTRUCTURE
     1 EC8         1 TEMP              0 ****  ****    0 ROOT
