@<TRIPOS>MOLECULE
molecule
   69    72     1     0     0
SMALL
bcc


@<TRIPOS>ATOM
      1 O20          0.0000     0.0000     0.0000 oh         1 ECA      -0.514767
      2 C17          1.3600     0.0000     0.0000 ca         1 ECA       0.056433
      3 C18          2.0550     0.0000     1.2050 ca         1 ECA       0.158767
      4 O19          1.3790    -0.0040     2.3830 oh         1 ECA      -0.483767
      5 C16          2.0530     0.0050    -1.1980 ca         1 ECA      -0.127000
      6 C15          3.4380     0.0050    -1.2050 ca         1 ECA      -0.136667
      7 C14          4.1410     0.0000    -0.0200 ca         1 ECA      -0.102000
      8 C13          3.4550    -0.0050     1.1980 ca         1 ECA      -0.158267
      9 C11          4.2040    -0.0100     2.4700 c          1 ECA       0.672367
     10 O12          3.6050    -0.0140     3.5270 o          1 ECA      -0.581100
     11 N10          5.5520    -0.0100     2.4580 ns         1 ECA      -0.589233
     12 C9           6.2950    -0.0150     3.7210 c3         1 ECA       0.164300
     13 C2           7.7740    -0.0150     3.4330 ca         1 ECA      -0.123300
     14 C1           8.4530     1.1830     3.3060 ca         1 ECA      -0.091667
     15 C3           8.4530    -1.2120     3.3010 ca         1 ECA      -0.091667
     16 C4           9.8090    -1.2110     3.0330 ca         1 ECA      -0.123300
     17 C8          10.5480    -2.5160     2.8840 c3         1 ECA       0.164300
     18 N21         11.0520    -2.9430     4.1920 ns         1 ECA      -0.589233
     19 C22         11.7500    -4.0920     4.3030 c          1 ECA       0.672367
     20 O23         11.9600    -4.7720     3.3180 o          1 ECA      -0.581100
     21 C24         12.2570    -4.5220     5.6200 ca         1 ECA      -0.158267
     22 C25         12.0150    -3.7430     6.7550 ca         1 ECA      -0.102000
     23 C26         12.4910    -4.1480     7.9820 ca         1 ECA      -0.136667
     24 C27         13.2080    -5.3260     8.1010 ca         1 ECA      -0.127000
     25 C28         13.4550    -6.1100     6.9860 ca         1 ECA       0.056433
     26 O31         14.1590    -7.2670     7.1100 oh         1 ECA      -0.514767
     27 C29         12.9760    -5.7170     5.7400 ca         1 ECA       0.158767
     28 O30         13.2160    -6.4820     4.6450 oh         1 ECA      -0.483767
     29 C5          10.4880    -0.0130     2.9060 ca         1 ECA      -0.091667
     30 C6           9.8090     1.1830     3.0410 ca         1 ECA      -0.123300
     31 C7          10.5500     2.4890     2.9020 c3         1 ECA       0.164300
     32 N32         11.0530     2.9070     4.2130 ns         1 ECA      -0.589233
     33 C33         11.7500     4.0540     4.3330 c          1 ECA       0.672367
     34 O34         11.9620     4.7420     3.3530 o          1 ECA      -0.581100
     35 C35         12.2580     4.4750     5.6520 ca         1 ECA      -0.158267
     36 C36         12.0170     3.6870     6.7810 ca         1 ECA      -0.102000
     37 C37         12.4920     4.0830     8.0130 ca         1 ECA      -0.136667
     38 C38         13.2090     5.2620     8.1390 ca         1 ECA      -0.127000
     39 C39         13.4560     6.0530     7.0300 ca         1 ECA       0.056433
     40 O42         14.1610     7.2080     7.1630 oh         1 ECA      -0.514767
     41 C40         12.9870     5.6620     5.7800 ca         1 ECA       0.158767
     42 O41         13.2280     6.4360     4.6890 oh         1 ECA      -0.483767
     43 H20         -0.3140    -0.8540    -0.2460 ho         1 ECA       0.427000
     44 H19          0.9570     0.8300     2.5060 ho         1 ECA       0.434000
     45 H16          1.5090     0.0090    -2.1350 ha         1 ECA       0.144000
     46 H15          3.9720     0.0090    -2.1480 ha         1 ECA       0.137333
     47 H14          5.2240    -0.0020    -0.0320 ha         1 ECA       0.129667
     48 H10          6.0440     0.0260     1.5880 hn         1 ECA       0.316167
     49 H9C1         6.0380    -0.9020     4.2880 h1         1 ECA       0.061867
     50 H9C2         6.0380     0.8670     4.2950 h1         1 ECA       0.061867
     51 H1           7.9210     2.1210     3.4120 ha         1 ECA       0.145000
     52 H3           7.9160    -2.1500     3.3710 ha         1 ECA       0.145000
     53 H8C1         9.8750    -3.2690     2.4930 h1         1 ECA       0.061867
     54 H8C2        11.3790    -2.3850     2.2020 h1         1 ECA       0.061867
     55 H21         10.8670    -2.3900     5.0050 hn         1 ECA       0.316167
     56 H25         11.4550    -2.8190     6.6690 ha         1 ECA       0.129667
     57 H26         12.3030    -3.5410     8.8600 ha         1 ECA       0.137333
     58 H27         13.5790    -5.6370     9.0710 ha         1 ECA       0.144000
     59 H31         15.0720    -7.0670     7.2350 ho         1 ECA       0.427000
     60 H30         12.7140    -7.2780     4.7020 ho         1 ECA       0.434000
     61 H5          11.5510    -0.0120     2.6970 ha         1 ECA       0.145000
     62 H7C1        11.3810     2.3620     2.2200 h1         1 ECA       0.061867
     63 H7C2         9.8780     3.2460     2.5160 h1         1 ECA       0.061867
     64 H32         10.8590     2.3530     5.0240 hn         1 ECA       0.316167
     65 H36         11.4560     2.7650     6.6880 ha         1 ECA       0.129667
     66 H37         12.3030     3.4700     8.8860 ha         1 ECA       0.137333
     67 H38         13.5790     5.5650     9.1110 ha         1 ECA       0.144000
     68 H42         13.6190     7.8620     7.5720 ho         1 ECA       0.427000
     69 H41         14.1440     6.3980     4.4730 ho         1 ECA       0.434000
@<TRIPOS>BOND
     1     1     2 1
     2     1    43 1
     3     2     3 ar
     4     2     5 ar
     5     3     4 1
     6     3     8 ar
     7     4    44 1
     8     5     6 ar
     9     5    45 1
    10     6     7 ar
    11     6    46 1
    12     7     8 ar
    13     7    47 1
    14     8     9 1
    15     9    10 2
    16     9    11 1
    17    11    12 1
    18    11    48 1
    19    12    13 1
    20    12    49 1
    21    12    50 1
    22    13    14 ar
    23    13    15 ar
    24    14    30 ar
    25    14    51 1
    26    15    16 ar
    27    15    52 1
    28    16    17 1
    29    16    29 ar
    30    17    18 1
    31    17    53 1
    32    17    54 1
    33    18    19 1
    34    18    55 1
    35    19    20 2
    36    19    21 1
    37    21    22 ar
    38    21    27 ar
    39    22    23 ar
    40    22    56 1
    41    23    24 ar
    42    23    57 1
    43    24    25 ar
    44    24    58 1
    45    25    26 1
    46    25    27 ar
    47    26    59 1
    48    27    28 1
    49    28    60 1
    50    29    30 ar
    51    29    61 1
    52    30    31 1
    53    31    32 1
    54    31    62 1
    55    31    63 1
    56    32    33 1
    57    32    64 1
    58    33    34 2
    59    33    35 1
    60    35    36 ar
    61    35    41 ar
    62    36    37 ar
    63    36    65 1
    64    37    38 ar
    65    37    66 1
    66    38    39 ar
    67    38    67 1
    68    39    40 1
    69    39    41 ar
    70    40    68 1
    71    41    42 1
    72    42    69 1
@<TRIPOS>SUBSTRUCTURE
     1 ECA         1 TEMP              0 ****  ****    0 ROOT
