@<TRIPOS>MOLECULE
molecule
   65    64     1     0     0
SMALL
bcc


@<TRIPOS>ATOM
      1 CAA          0.0000     0.0000     0.0000 c3         1 ECB      -0.092100
      2 CAM          1.5300     0.0000     0.0000 c3         1 ECB      -0.082400
      3 CAU          2.0400     0.0000     1.4430 c3         1 ECB      -0.090400
      4 CAV          3.5710    -0.0000     1.4430 c3         1 ECB      -0.093400
      5 CAQ          4.0800     0.0010     2.8850 c3         1 ECB       0.028800
      6 CAK          5.5870    -0.0000     2.8850 c2         1 ECB      -0.224200
      7 CAI          6.2430     0.8980     3.5770 c2         1 ECB      -0.161200
      8 CAO          5.4980     1.8280     4.5010 c3         1 ECB       0.284000
      9 CAG          6.1030     1.7560     5.8800 c2         1 ECB      -0.232200
     10 CAE          6.4710     2.8540     6.4920 c2         1 ECB      -0.098200
     11 CAN          6.1410     4.1970     5.8940 c3         1 ECB      -0.043000
     12 CAF          5.4200     5.0390     6.9140 c2         1 ECB      -0.344200
     13 CAH          5.8610     6.2390     7.2030 c2         1 ECB      -0.258200
     14 CAP          6.9760     6.8470     6.3930 c3         1 ECB      -0.106000
     15 CAJ          6.5510     8.2020     5.8890 c2         1 ECB      -0.283200
     16 CAL          7.2990     9.2510     6.1210 c2         1 ECB      -0.375200
     17 CAR          8.6600     9.0830     6.7450 c3         1 ECB      -0.189200
     18 CAW          9.7060     9.7970     5.8870 c3         1 ECB      -0.078400
     19 CAX         11.0890     9.6250     6.5200 c3         1 ECB      -0.130400
     20 CAZ         12.1190    10.3280     5.6750 c          1 ECB       0.629100
     21 OAB         11.7830    10.9080     4.6690 o          1 ECB      -0.557000
     22 OAY         13.4120    10.3120     6.0380 os         1 ECB      -0.400900
     23 CBA         14.3480    11.0100     5.1770 c3         1 ECB       0.155100
     24 CAT         15.5170    11.5360     6.0140 c3         1 ECB       0.136900
     25 OAD         16.2490    10.4350     6.5550 oh         1 ECB      -0.571300
     26 CAS         14.8760    10.0470     4.1120 c3         1 ECB       0.136900
     27 OAC         15.6390     9.0140     4.7400 oh         1 ECB      -0.571300
     28 H1          -0.3610    -0.8850     0.5100 hc         1 ECB       0.035033
     29 H2          -0.3610     0.0000    -1.0210 hc         1 ECB       0.035033
     30 H3          -0.3610     0.8840     0.5110 hc         1 ECB       0.035033
     31 H4           1.8910     0.8850    -0.5110 hc         1 ECB       0.042700
     32 H5           1.8910    -0.8850    -0.5110 hc         1 ECB       0.042700
     33 H6           1.6790     0.8850     1.9530 hc         1 ECB       0.040700
     34 H7           1.6790    -0.8850     1.9530 hc         1 ECB       0.040700
     35 H8           3.9320     0.8840     0.9320 hc         1 ECB       0.057700
     36 H9           3.9320    -0.8850     0.9320 hc         1 ECB       0.057700
     37 H10          3.7190    -0.8830     3.3960 hc         1 ECB       0.048200
     38 H11          3.7200     0.8860     3.3950 hc         1 ECB       0.048200
     39 H12          5.0270    -0.4840     3.6760 ha         1 ECB       0.118000
     40 H13          5.7790     1.8040     3.2050 ha         1 ECB      -0.003000
     41 H14          4.4570     1.5340     4.5470 hc         1 ECB       0.055700
     42 H15          5.5710     2.8420     4.1280 hc         1 ECB       0.055700
     43 H16          5.0470     1.9550     5.7420 ha         1 ECB       0.033000
     44 H17          7.1020     3.2970     5.7310 ha         1 ECB       0.127000
     45 H18          7.0570     4.6940     5.5970 hc         1 ECB       0.031200
     46 H19          5.5070     4.0600     5.0260 hc         1 ECB       0.031200
     47 H20          5.2180     5.1540     5.8570 ha         1 ECB       0.278000
     48 H21          6.8960     6.0190     7.4320 ha         1 ECB       0.256000
     49 H22          7.8570     6.9520     7.0140 hc         1 ECB       0.041200
     50 H23          7.2020     6.2040     5.5510 hc         1 ECB       0.041200
     51 H24          6.6000     7.8600     6.9160 ha         1 ECB       0.287000
     52 H25          8.1800     8.8010     5.6810 ha         1 ECB       0.351000
     53 H26          8.9020     8.0290     6.8060 hc         1 ECB       0.064700
     54 H27          8.6560     9.5110     7.7400 hc         1 ECB       0.064700
     55 H28          9.7100     9.3700     4.8910 hc         1 ECB       0.077200
     56 H29          9.4650    10.8520     5.8260 hc         1 ECB       0.077200
     57 H30         11.3300     8.5710     6.5810 hc         1 ECB       0.074200
     58 H31         11.0860    10.0530     7.5160 hc         1 ECB       0.074200
     59 H32         13.8460    11.8410     4.6950 h1         1 ECB       0.081700
     60 H33         15.1350    12.1490     6.8220 h1         1 ECB       0.030200
     61 H34         16.1700    12.1310     5.3870 h1         1 ECB       0.030200
     62 H35         16.8340    10.7450     7.2250 ho         1 ECB       0.392500
     63 H36         14.0430     9.6070     3.5780 h1         1 ECB       0.030200
     64 H37         15.5060    10.5890     3.4170 h1         1 ECB       0.030200
     65 H38         15.8510     8.3500     4.1050 ho         1 ECB       0.392500
@<TRIPOS>BOND
     1     1     2 1
     2     6     7 2
     3     6     5 1
     4     2     3 1
     5     4     5 1
     6     4     3 1
     7     7     8 1
     8     8     9 1
     9     9    10 2
    10    10    11 1
    11    17    18 1
    12    17    16 1
    13    14    13 1
    14    14    15 1
    15    18    19 1
    16    11    12 1
    17    13    12 2
    18    26    27 1
    19    26    23 1
    20    16    15 2
    21    19    20 1
    22    20    21 2
    23    20    22 1
    24    22    23 1
    25    23    24 1
    26    25    24 1
    27     1    28 1
    28     1    29 1
    29     1    30 1
    30     2    31 1
    31     2    32 1
    32     3    33 1
    33     3    34 1
    34     4    35 1
    35     4    36 1
    36     5    37 1
    37     5    38 1
    38     6    39 1
    39     7    40 1
    40     8    41 1
    41     8    42 1
    42     9    43 1
    43    10    44 1
    44    11    45 1
    45    11    46 1
    46    12    47 1
    47    13    48 1
    48    14    49 1
    49    14    50 1
    50    15    51 1
    51    16    52 1
    52    17    53 1
    53    17    54 1
    54    18    55 1
    55    18    56 1
    56    19    57 1
    57    19    58 1
    58    23    59 1
    59    24    60 1
    60    24    61 1
    61    25    62 1
    62    26    63 1
    63    26    64 1
    64    27    65 1
@<TRIPOS>SUBSTRUCTURE
     1 ECB         1 TEMP              0 ****  ****    0 ROOT
