@<TRIPOS>MOLECULE
molecule
   22    22     1     0     0
SMALL
bcc


@<TRIPOS>ATOM
      1 O01          0.0000     0.0000     0.0000 o          1 ECD      -0.827300
      2 C02          1.3430     0.0000     0.0000 c          1 ECD       0.889600
      3 O03          1.9470     0.0000     1.0470 o          1 ECD      -0.827300
      4 C04          2.0980     0.0020    -1.3040 c3         1 ECD      -0.191400
      5 C06          3.6010     0.0030    -1.0240 c3         1 ECD      -0.082400
      6 C07          4.3660     0.0050    -2.3480 c3         1 ECD       0.009000
      7 C08          5.8840    -0.0340    -2.0920 c3         1 ECD       0.025300
      8 N09          6.3920     1.2090    -2.6870 nu         1 ECD      -0.441100
      9 C10          5.3450     1.9060    -3.2260 cz         1 ECD       0.483300
     10 N11          5.4770     3.0550    -3.8270 nv         1 ECD      -0.489200
     11 N12          4.1460     1.2680    -3.0660 nu         1 ECD      -0.378200
     12 H04          1.8370    -0.8820    -1.8740 hc         1 ECD       0.027700
     13 H04A         1.8350     0.8870    -1.8710 hc         1 ECD       0.027700
     14 H06          3.8630    -0.8810    -0.4560 hc         1 ECD       0.077700
     15 H06A         3.8610     0.8880    -0.4550 hc         1 ECD       0.077700
     16 H07          4.0680    -0.8340    -2.9650 h1         1 ECD       0.090700
     17 H08          6.2820    -0.8500    -2.6830 h1         1 ECD       0.095200
     18 HN11         4.6730     3.5190    -4.2030 hn         1 ECD       0.323200
     19 HN1A         6.3820     3.4740    -3.9140 hn         1 ECD       0.323200
     20 H08A         6.0240     0.0500    -1.0210 h1         1 ECD       0.095200
     21 HN09         7.3490     1.5000    -2.6960 hn         1 ECD       0.335700
     22 HN12         3.2610     1.6070    -3.3870 hn         1 ECD       0.353700
@<TRIPOS>BOND
     1     2     1 1
     2     4     2 1
     3     3     2 1
     4     4     5 1
     5     4    12 1
     6     4    13 1
     7     5     6 1
     8     5    14 1
     9     5    15 1
    10     6    11 1
    11     6     7 1
    12     6    16 1
    13     7     8 1
    14     7    17 1
    15     9     8 2
    16    11     9 1
    17     9    10 1
    18    10    18 1
    19    10    19 1
    20     7    20 1
    21     8    21 1
    22    11    22 1
@<TRIPOS>SUBSTRUCTURE
     1 ECD         1 TEMP              0 ****  ****    0 ROOT
