@<TRIPOS>MOLECULE
molecule
   18    18     1     0     0
SMALL
bcc


@<TRIPOS>ATOM
      1 C4           0.0000     0.0000     0.0000 c3         1 ECE      -0.098400
      2 C5           1.5040     0.0000     0.0000 c3         1 ECE      -0.129400
      3 C6           1.9410     0.0000     1.4680 c3         1 ECE       0.156400
      4 C2           0.2770     2.4190     0.6560 c3         1 ECE      -0.186400
      5 C3          -0.5810     1.4280    -0.1580 c3         1 ECE      -0.063400
      6 O7           1.9180     1.2600     2.0530 os         1 ECE      -0.444900
      7 C1           0.7170     1.9200     1.9770 c          1 ECE       0.746600
      8 O            0.0380     2.0890     2.9620 o          1 ECE      -0.553500
      9 H1          -0.3510    -0.6140    -0.8210 hc         1 ECE       0.048700
     10 H2          -0.3510    -0.4190     0.9350 hc         1 ECE       0.048700
     11 H3           1.8740    -0.8890    -0.4960 hc         1 ECE       0.060700
     12 H4           1.8740     0.8890    -0.4960 hc         1 ECE       0.060700
     13 H5           2.9500    -0.3890     1.5280 h1         1 ECE       0.052200
     14 H6           1.2790    -0.6510     2.0250 h1         1 ECE       0.052200
     15 H7           1.1580     2.6640     0.0750 hc         1 ECE       0.070700
     16 H8          -0.3010     3.3220     0.8100 hc         1 ECE       0.070700
     17 H9          -0.5630     1.7110    -1.2040 hc         1 ECE       0.054700
     18 H10         -1.6000     1.4460     0.2100 hc         1 ECE       0.054700
@<TRIPOS>BOND
     1     8     7 2
     2     4     7 1
     3     4     5 1
     4     7     6 1
     5     5     1 1
     6     6     3 1
     7     1     2 1
     8     3     2 1
     9     1     9 1
    10     1    10 1
    11     2    11 1
    12     2    12 1
    13     3    13 1
    14     3    14 1
    15     4    15 1
    16     4    16 1
    17     5    17 1
    18     5    18 1
@<TRIPOS>SUBSTRUCTURE
     1 ECE         1 TEMP              0 ****  ****    0 ROOT
