@<TRIPOS>MOLECULE
ECE
   18    18     1     0     0
SMALL
bcc


@<TRIPOS>ATOM
      1 C4         -0.0080    0.0060   -0.0950 c3        1 ECE     -0.087400
      2 C5          1.4980   -0.0500    0.0380 c3        1 ECE     -0.119400
      3 C6          1.9580   -0.0040    1.4820 c3        1 ECE      0.150400
      4 C2          0.2330    2.4300    0.6490 c3        1 ECE     -0.160400
      5 C3         -0.5730    1.4110   -0.1250 c3        1 ECE     -0.072400
      6 O7          1.8570    1.2670    2.1190 os        1 ECE     -0.457900
      7 C1          0.6610    1.9570    2.0030 c         1 ECE      0.726600
      8 O           0.1460    2.2360    3.0820 o         1 ECE     -0.561500
      9 H1         -0.3120   -0.5180   -1.0400 hc        1 ECE      0.048700
     10 H2         -0.4740   -0.5630    0.7550 hc        1 ECE      0.048700
     11 H3          1.9760    0.7800   -0.5440 hc        1 ECE      0.056700
     12 H4          1.8660   -1.0170   -0.3980 hc        1 ECE      0.056700
     13 H5          1.3850   -0.7480    2.1010 h1        1 ECE      0.056700
     14 H6          3.0590   -0.2260    1.5510 h1        1 ECE      0.056700
     15 H7          1.1550    2.7130    0.0730 hc        1 ECE      0.076700
     16 H8         -0.3840    3.3600    0.7870 hc        1 ECE      0.076700
     17 H9         -1.6220    1.3870    0.2760 hc        1 ECE      0.052200
     18 H10        -0.6370    1.7650   -1.1890 hc        1 ECE      0.052200
@<TRIPOS>BOND
     1    1    2 1   
     2    1    5 1   
     3    1    9 1   
     4    1   10 1   
     5    2    3 1   
     6    2   11 1   
     7    2   12 1   
     8    3    6 1   
     9    3   13 1   
    10    3   14 1   
    11    4    5 1   
    12    4    7 1   
    13    4   15 1   
    14    4   16 1   
    15    5   17 1   
    16    5   18 1   
    17    6    7 1   
    18    7    8 2   
@<TRIPOS>SUBSTRUCTURE
     1 ECE         1 TEMP              0 ****  ****    0 ROOT
