@<TRIPOS>MOLECULE
molecule
   31    32     1     0     0
SMALL
bcc


@<TRIPOS>ATOM
      1 C21          0.0000     0.0000     0.0000 c3         1 ECG      -0.119400
      2 C24          1.5470     0.0000     0.0000 c3         1 ECG       0.134500
      3 C26          2.0180     0.0000     1.4630 c3         1 ECG      -0.090400
      4 C29          1.2510    -1.0810     2.2300 c3         1 ECG       0.150100
      5 O1           1.7760    -1.1850     3.5550 oh         1 ECG      -0.586800
      6 C18         -0.3950    -1.4910     0.0370 c3         1 ECG      -0.119400
      7 C10          0.9710    -2.2660     0.0480 c3         1 ECG       0.156500
      8 N12          1.9250    -1.3140    -0.5860 n3         1 ECG      -0.626600
      9 C8           1.4020    -2.4270     1.5150 c3         1 ECG      -0.105700
     10 C6           2.8410    -2.8710     1.5730 c          1 ECG       0.646100
     11 O5           3.4330    -3.0720     2.7620 os         1 ECG      -0.422900
     12 C1           4.8200    -3.5000     2.8170 c3         1 ECG       0.145700
     13 O7           3.4600    -3.0460     0.5520 o          1 ECG      -0.526000
     14 C14          1.5720    -1.2470    -2.0100 c3         1 ECG       0.119100
     15 H211        -0.3770     0.4670    -0.9020 hc         1 ECG       0.048700
     16 H212        -0.3770     0.5120     0.8770 hc         1 ECG       0.048700
     17 H24          1.9550     0.8310    -0.5620 h1         1 ECG       0.079700
     18 H261         1.8220     0.9690     1.9070 hc         1 ECG       0.061700
     19 H262         3.0790    -0.2100     1.5030 hc         1 ECG       0.061700
     20 H29          0.2020    -0.8130     2.2780 h1         1 ECG       0.038700
     21 HO1          1.1610    -0.8150     4.1670 ho         1 ECG       0.398000
     22 H181        -0.9600    -1.7090     0.9360 hc         1 ECG       0.050200
     23 H182        -0.9690    -1.7520    -0.8430 hc         1 ECG       0.050200
     24 H10          0.9170    -3.2110    -0.4780 h1         1 ECG       0.090700
     25 H8           0.7740    -3.1660     1.9980 hc         1 ECG       0.076700
     26 H11          5.1040    -3.6710     3.8490 h1         1 ECG       0.043700
     27 H12          5.4530    -2.7300     2.3920 h1         1 ECG       0.043700
     28 H13          4.9380    -4.4170     2.2530 h1         1 ECG       0.043700
     29 H141         0.7690    -1.9450    -2.2160 h1         1 ECG       0.036700
     30 H142         2.4370    -1.5060    -2.6090 h1         1 ECG       0.036700
     31 H143         1.2500    -0.2430    -2.2560 h1         1 ECG       0.036700
@<TRIPOS>BOND
     1     1     2 1
     2     1     6 1
     3     1    15 1
     4     1    16 1
     5     2     3 1
     6     2     8 1
     7     2    17 1
     8     3     4 1
     9     3    18 1
    10     3    19 1
    11     4     5 1
    12     4     9 1
    13     4    20 1
    14     5    21 1
    15     6     7 1
    16     6    22 1
    17     6    23 1
    18     7     8 1
    19     7     9 1
    20     7    24 1
    21     8    14 1
    22     9    10 1
    23     9    25 1
    24    10    11 1
    25    10    13 2
    26    11    12 1
    27    12    26 1
    28    12    27 1
    29    12    28 1
    30    14    29 1
    31    14    30 1
    32    14    31 1
@<TRIPOS>SUBSTRUCTURE
     1 ECG         1 TEMP              0 ****  ****    0 ROOT
