@<TRIPOS>MOLECULE
ECH
   95    94     1     0     0
SMALL
bcc


@<TRIPOS>ATOM
      1 C1         -1.6550    0.4980    0.7390 c3        1 ECH     -0.004800
      2 C2         -1.8200   -0.4200    1.9540 c3        1 ECH     -0.071400
      3 C3         -3.0340   -0.0670    2.7810 c3        1 ECH     -0.076400
      4 C4         -2.9190    1.3460    3.3070 c3        1 ECH     -0.044200
      5 C5         -2.5000    2.3170    2.2570 c2        1 ECH     -0.095400
      6 C6         -1.9390    1.9410    1.0890 ce        1 ECH     -0.092200
      7 C7         -1.4930    2.9100    0.0900 ce        1 ECH     -0.097000
      8 C8         -2.2070    3.7590   -0.6600 cf        1 ECH     -0.136000
      9 C9         -3.6500    3.9570   -0.7040 cf        1 ECH     -0.031300
     10 C10        -4.1420    5.1640   -0.9250 c1        1 ECH     -0.075900
     11 C11        -4.6150    6.3110   -1.1280 c1        1 ECH     -0.026900
     12 C12        -5.0740    7.5260   -1.3400 ce        1 ECH     -0.130100
     13 C13        -6.4810    7.8670   -1.4250 ce        1 ECH     -0.038300
     14 C14        -6.8590    9.1170   -1.6390 c1        1 ECH     -0.064900
     15 C15        -7.2240   10.3020   -1.8410 c1        1 ECH     -0.031900
     16 C16        -7.5850   11.5510   -2.0530 ce        1 ECH     -0.128100
     17 C17        -8.9630   11.9610   -2.1480 ce        1 ECH     -0.117000
     18 C18        -9.4080   13.2230   -2.3600 cf        1 ECH     -0.070200
     19 C19       -10.8430   13.4580   -2.4200 cf        1 ECH     -0.118000
     20 C20       -11.4200   14.6680   -2.5410 ce        1 ECH     -0.132000
     21 C21       -12.8540   14.8380   -2.5940 ce        1 ECH     -0.126000
     22 C22       -13.4790   16.0300   -2.6930 cf        1 ECH     -0.083200
     23 C23       -14.9280   16.1340   -2.7930 cf        1 ECH     -0.113000
     24 C24       -15.8550   15.5270   -2.0440 ce        1 ECH     -0.135000
     25 C25       -15.6580   14.6260   -0.9080 ce        1 ECH     -0.005200
     26 C26       -15.6080   13.2850   -1.0670 cf        1 ECH     -0.194400
     27 C27       -15.4560   12.3620    0.0790 c         1 ECH      0.572300
     28 O27       -15.4750   11.1330   -0.0610 o         1 ECH     -0.538100
     29 C28       -15.2470   12.9880    1.4280 c3        1 ECH     -0.180400
     30 C29       -15.9660   14.3090    1.5550 c3        1 ECH     -0.068400
     31 C30       -15.5980   15.2950    0.4440 c3        1 ECH     -0.018800
     32 C31        -2.6020    0.0500   -0.3700 c3        1 ECH     -0.086600
     33 C32        -0.2200    0.3480    0.2380 c3        1 ECH     -0.086600
     34 C33        -2.7370    3.7340    2.6280 c3        1 ECH     -0.064900
     35 C34        -4.5540    2.7920   -0.5430 c3        1 ECH     -0.065900
     36 C35        -7.4810    6.7800   -1.2670 c3        1 ECH     -0.058900
     37 C36        -8.5250   14.4010   -2.5350 c3        1 ECH     -0.064900
     38 C37       -12.7440   17.3200   -2.7570 c3        1 ECH     -0.059900
     39 C38       -15.7170   12.6200   -2.3890 c3        1 ECH     -0.054900
     40 C39       -14.1960   15.8450    0.6780 c3        1 ECH     -0.087100
     41 C40       -16.5940   16.4520    0.4940 c3        1 ECH     -0.087100
     42 H2         -0.9040   -0.3430    2.5980 hc        1 ECH      0.043200
     43 H2A        -1.8960   -1.4810    1.6010 hc        1 ECH      0.043200
     44 H3         -3.1290   -0.7830    3.6390 hc        1 ECH      0.042200
     45 H3A        -3.9620   -0.1660    2.1580 hc        1 ECH      0.042200
     46 H4         -3.9040    1.6690    3.7390 hc        1 ECH      0.049700
     47 H4A        -2.1650    1.3790    4.1410 hc        1 ECH      0.049700
     48 H7         -0.3910    2.9180   -0.0340 ha        1 ECH      0.127000
     49 H8         -1.6530    4.4320   -1.3440 ha        1 ECH      0.128000
     50 H10        -7.9170    6.1990    5.7980 ha        1 ECH      0.000750
     51 H11        -7.6690    5.7410    6.2300 ha        1 ECH      0.000750
     52 H12        -4.3570    8.3590   -1.4660 ha        1 ECH      0.147000
     53 H14        -5.1040   13.7960   -2.8480 ha        1 ECH      0.000750
     54 H15        -5.1020   13.9440   -2.1870 ha        1 ECH      0.000750
     55 H16        -6.7950   12.3180   -2.1620 ha        1 ECH      0.142000
     56 H17        -9.7040   11.1480   -2.0300 ha        1 ECH      0.131000
     57 H19       -11.4750   12.5530   -2.3550 ha        1 ECH      0.127000
     58 H20       -10.8120   15.5860   -2.6040 ha        1 ECH      0.125000
     59 H21       -13.4590   13.9130   -2.5500 ha        1 ECH      0.135000
     60 H23       -15.2650   16.8230   -3.5920 ha        1 ECH      0.128000
     61 H24       -16.9260   15.7180   -2.2530 ha        1 ECH      0.134000
     62 H28       -15.6010   12.2830    2.2260 hc        1 ECH      0.073700
     63 H28A      -14.1410   13.1270    1.5720 hc        1 ECH      0.073700
     64 H29       -15.7220   14.7710    2.5470 hc        1 ECH      0.049700
     65 H29A      -17.0740   14.1300    1.5310 hc        1 ECH      0.049700
     66 H31        -2.5060    0.7260   -1.2540 hc        1 ECH      0.036533
     67 H31A       -2.3550   -0.9920   -0.6860 hc        1 ECH      0.036533
     68 H31B       -3.6610    0.0770   -0.0170 hc        1 ECH      0.036533
     69 H32         0.0350   -0.7350    0.1450 hc        1 ECH      0.036533
     70 H32A       -0.1000    0.8240   -0.7640 hc        1 ECH      0.036533
     71 H32B        0.4950    0.8240    0.9510 hc        1 ECH      0.036533
     72 H33        -2.1990    4.4380    1.9460 hc        1 ECH      0.046033
     73 H33A       -3.8320    3.9620    2.5730 hc        1 ECH      0.046033
     74 H33B       -2.3930    3.9200    3.6760 hc        1 ECH      0.046033
     75 H34        -5.6280    3.0990   -0.5810 hc        1 ECH      0.054033
     76 H34A       -4.3650    2.0500   -1.3600 hc        1 ECH      0.054033
     77 H34B       -4.3560    2.2890    0.4380 hc        1 ECH      0.054033
     78 H35        -7.3260    6.0040   -2.0580 hc        1 ECH      0.051700
     79 H35A       -7.3570    6.2930   -0.2680 hc        1 ECH      0.051700
     80 H35B       -8.5250    7.1690   -1.3480 hc        1 ECH      0.051700
     81 H36        -7.4430   14.1270   -2.5610 hc        1 ECH      0.045367
     82 H36A       -8.6800   15.1220   -1.6920 hc        1 ECH      0.045367
     83 H36B       -8.7710   14.9250   -3.4930 hc        1 ECH      0.045367
     84 H37       -13.4450   18.1850   -2.8540 hc        1 ECH      0.044033
     85 H37A      -12.1380   17.4640   -1.8270 hc        1 ECH      0.044033
     86 H37B      -12.0490   17.3330   -3.6340 hc        1 ECH      0.044033
     87 H38       -16.6170   11.9550   -2.4000 hc        1 ECH      0.050700
     88 H38A      -14.8180   11.9770   -2.5660 hc        1 ECH      0.050700
     89 H38B      -15.8030   13.3600   -3.2220 hc        1 ECH      0.050700
     90 H39       -14.1740   16.4390    1.6230 hc        1 ECH      0.041033
     91 H39A      -13.4540   15.0150    0.7580 hc        1 ECH      0.041033
     92 H39B      -13.8960   16.5060   -0.1730 hc        1 ECH      0.041033
     93 H40       -16.6170   16.8850    1.5230 hc        1 ECH      0.041033
     94 H40A      -17.6190   16.0980    0.2300 hc        1 ECH      0.041033
     95 H40B      -16.2960   17.2530   -0.2240 hc        1 ECH      0.041033
@<TRIPOS>BOND
     1    1    2 1   
     2    1    6 1   
     3    1   32 1   
     4    1   33 1   
     5    2    3 1   
     6    2   42 1   
     7    2   43 1   
     8    3    4 1   
     9    3   44 1   
    10    3   45 1   
    11    4    5 1   
    12    4   46 1   
    13    4   47 1   
    14    5    6 2   
    15    5   34 1   
    16    6    7 1   
    17    7    8 2   
    18    7   48 1   
    19    8    9 1   
    20    8   49 1   
    21    9   10 2   
    22    9   35 1   
    23   10   11 2   
    24   11   12 2   
    25   12   13 1   
    26   12   52 1   
    27   13   14 2   
    28   13   36 1   
    29   14   15 2   
    30   15   16 2   
    31   16   17 1   
    32   16   55 1   
    33   17   18 2   
    34   17   56 1   
    35   18   19 1   
    36   18   37 1   
    37   19   20 2   
    38   19   57 1   
    39   20   21 1   
    40   20   58 1   
    41   21   22 2   
    42   21   59 1   
    43   22   23 1   
    44   22   38 1   
    45   23   24 2   
    46   23   60 1   
    47   24   25 1   
    48   24   61 1   
    49   25   26 2   
    50   25   31 1   
    51   26   27 1   
    52   26   39 1   
    53   27   28 2   
    54   27   29 1   
    55   29   30 1   
    56   29   62 1   
    57   29   63 1   
    58   30   31 1   
    59   30   64 1   
    60   30   65 1   
    61   31   40 1   
    62   31   41 1   
    63   32   66 1   
    64   32   67 1   
    65   32   68 1   
    66   33   69 1   
    67   33   70 1   
    68   33   71 1   
    69   34   72 1   
    70   34   73 1   
    71   34   74 1   
    72   35   75 1   
    73   35   76 1   
    74   35   77 1   
    75   36   78 1   
    76   36   79 1   
    77   36   80 1   
    78   37   81 1   
    79   37   82 1   
    80   37   83 1   
    81   38   84 1   
    82   38   85 1   
    83   38   86 1   
    84   39   87 1   
    85   39   88 1   
    86   39   89 1   
    87   40   90 1   
    88   40   91 1   
    89   40   92 1   
    90   41   93 1   
    91   41   94 1   
    92   41   95 1   
    93   50   51 1   
    94   53   54 1   
@<TRIPOS>SUBSTRUCTURE
     1 ECH         1 TEMP              0 ****  ****    0 ROOT
