@<TRIPOS>MOLECULE
molecule
   95    96     1     0     0
SMALL
bcc


@<TRIPOS>ATOM
      1 C1           0.0000     0.0000     0.0000 c3         1 ECH      -0.015800
      2 C2           1.5290     0.0000     0.0000 c3         1 ECH      -0.069400
      3 C3           2.0170     0.0000     1.4540 c3         1 ECH      -0.081400
      4 C4           1.6620     1.3470     2.0860 c3         1 ECH      -0.035200
      5 C5           0.2190     1.6710     1.8350 c2         1 ECH      -0.108400
      6 C6          -0.5170     1.0770     0.9090 ce         1 ECH      -0.096200
      7 C7          -1.8680     1.4810     0.7670 ce         1 ECH      -0.111000
      8 C8          -2.1650     2.7870     0.5330 cf         1 ECH      -0.139000
      9 C9          -3.5060     3.2070     0.5000 cf         1 ECH      -0.073200
     10 C10         -3.8060     4.5190     0.2650 ce         1 ECH      -0.143000
     11 C11         -5.1410     4.9370     0.2330 ce         1 ECH      -0.125000
     12 C12         -5.4430     6.2610    -0.0050 cf         1 ECH      -0.133000
     13 C13         -6.7780     6.6790    -0.0370 cf         1 ECH      -0.073200
     14 C14         -7.0800     8.0050    -0.2750 ce         1 ECH      -0.141000
     15 C15         -8.4130     8.4220    -0.3060 ce         1 ECH      -0.122000
     16 C16         -8.7160     9.7480    -0.5450 cf         1 ECH      -0.142000
     17 C17        -10.0470    10.1660    -0.5760 cf         1 ECH      -0.119000
     18 C18        -10.3500    11.4930    -0.8160 ce         1 ECH      -0.093200
     19 C19        -11.6810    11.9110    -0.8470 ce         1 ECH      -0.109000
     20 C20        -11.9840    13.2390    -1.0850 cf         1 ECH      -0.147000
     21 C21        -13.3150    13.6550    -1.1170 cf         1 ECH      -0.113000
     22 C22        -13.6180    14.9840    -1.3560 ce         1 ECH      -0.102200
     23 C23        -14.9480    15.4000    -1.3870 ce         1 ECH      -0.093000
     24 C24        -15.2510    16.7300    -1.6260 cf         1 ECH      -0.159000
     25 C25        -16.5740    17.1660    -1.5580 cf         1 ECH      -0.001200
     26 C26        -17.5330    16.5550    -2.3410 ce         1 ECH      -0.217400
     27 C27        -18.8620    16.9610    -2.3040 c          1 ECH       0.576300
     28 O27        -19.6830    16.4030    -3.0090 o          1 ECH      -0.541100
     29 C28        -19.2980    18.0870    -1.4020 c3         1 ECH      -0.180400
     30 C29        -18.1320    19.0600    -1.2090 c3         1 ECH      -0.066400
     31 C30        -16.9390    18.2920    -0.6270 c3         1 ECH      -0.033800
     32 C31         -0.5050    -1.3600     0.4870 c3         1 ECH      -0.079100
     33 C32         -0.5080     0.2500    -1.4220 c3         1 ECH      -0.079100
     34 C33         -0.4310     2.7320     2.6860 c3         1 ECH      -0.058900
     35 C34         -4.6140     2.2100     0.7260 c3         1 ECH      -0.060900
     36 C35         -7.8850     5.6820     0.1890 c3         1 ECH      -0.059900
     37 C36         -9.2420    12.4910    -1.0410 c3         1 ECH      -0.056900
     38 C37        -12.5100    15.9810    -1.5820 c3         1 ECH      -0.056900
     39 C38        -17.1320    15.4260    -3.2530 c3         1 ECH      -0.042900
     40 C39        -17.3110    17.7220     0.7430 c3         1 ECH      -0.081100
     41 C40        -15.7450    19.2390    -0.4800 c3         1 ECH      -0.081100
     42 H2           1.8920    -0.8870    -0.5050 hc         1 ECH       0.044700
     43 H2A          1.8920     0.8870    -0.5050 hc         1 ECH       0.044700
     44 H3           3.0910    -0.1400     1.4760 hc         1 ECH       0.044700
     45 H3A          1.5290    -0.7980     2.0010 hc         1 ECH       0.044700
     46 H4           1.8370     1.2970     3.1540 hc         1 ECH       0.049700
     47 H4A          2.2830     2.1210     1.6510 hc         1 ECH       0.049700
     48 H7          -2.6650     0.7650     0.9280 ha         1 ECH       0.135000
     49 H8          -1.3690     3.5170     0.4550 ha         1 ECH       0.136000
     50 H10         -3.0100     5.2360     0.1030 ha         1 ECH       0.130000
     51 H11         -5.9370     4.2210     0.3950 ha         1 ECH       0.134000
     52 H12         -4.6470     6.9780    -0.1670 ha         1 ECH       0.130000
     53 H14         -6.2840     8.7220    -0.4370 ha         1 ECH       0.130000
     54 H15         -9.2090     7.7060    -0.1440 ha         1 ECH       0.131000
     55 H16         -7.9190    10.4650    -0.7070 ha         1 ECH       0.133000
     56 H17        -10.8430     9.4500    -0.4130 ha         1 ECH       0.129000
     57 H19        -12.4770    11.1940    -0.6850 ha         1 ECH       0.130000
     58 H20        -11.1880    13.9560    -1.2470 ha         1 ECH       0.136000
     59 H21        -14.1110    12.9390    -0.9540 ha         1 ECH       0.130000
     60 H23        -15.7390    14.7000    -1.1470 ha         1 ECH       0.138000
     61 H24        -14.4550    17.4450    -1.7890 ha         1 ECH       0.145000
     62 H28        -20.1330    18.6090    -1.8540 hc         1 ECH       0.070700
     63 H28A       -19.5940    17.6850    -0.4410 hc         1 ECH       0.070700
     64 H29        -18.4260    19.8460    -0.5240 hc         1 ECH       0.050700
     65 H29A       -17.8560    19.4890    -2.1650 hc         1 ECH       0.050700
     66 H31         -0.5590    -1.3580     1.5690 hc         1 ECH       0.036033
     67 H31A         0.1770    -2.1360     0.1620 hc         1 ECH       0.036033
     68 H31B        -1.4890    -1.5480     0.0760 hc         1 ECH       0.036033
     69 H32         -0.0290    -0.4430    -2.1030 hc         1 ECH       0.036033
     70 H32A        -1.5810     0.1040    -1.4530 hc         1 ECH       0.036033
     71 H32B        -0.2730     1.2660    -1.7160 hc         1 ECH       0.036033
     72 H33          0.1300     2.8520     3.6050 hc         1 ECH       0.043033
     73 H33A        -0.4440     3.6710     2.1460 hc         1 ECH       0.043033
     74 H33B        -1.4460     2.4350     2.9200 hc         1 ECH       0.043033
     75 H34         -5.0270     1.9070    -0.2290 hc         1 ECH       0.045367
     76 H34A        -5.3910     2.6640     1.3280 hc         1 ECH       0.045367
     77 H34B        -4.2190     1.3420     1.2400 hc         1 ECH       0.045367
     78 H35         -8.0700     5.5820     1.2520 hc         1 ECH       0.045367
     79 H35A        -7.5950     4.7220    -0.2190 hc         1 ECH       0.045367
     80 H35B        -8.7870     6.0260    -0.3030 hc         1 ECH       0.045367
     81 H36         -9.4990    13.4300    -0.5660 hc         1 ECH       0.045367
     82 H36A        -8.3220    12.1100    -0.6150 hc         1 ECH       0.045367
     83 H36B        -9.1100    12.6490    -2.1040 hc         1 ECH       0.045367
     84 H37        -12.1270    16.3170    -0.6260 hc         1 ECH       0.045367
     85 H37A       -11.7130    15.5130    -2.1460 hc         1 ECH       0.045367
     86 H37B       -12.8950    16.8290    -2.1350 hc         1 ECH       0.045367
     87 H38        -17.8300    15.3640    -4.0800 hc         1 ECH       0.048700
     88 H38A       -17.1430    14.4940    -2.7010 hc         1 ECH       0.048700
     89 H38B       -16.1350    15.6070    -3.6360 hc         1 ECH       0.048700
     90 H39        -16.4080    17.5210     1.3070 hc         1 ECH       0.040033
     91 H39A       -17.8670    16.8010     0.6120 hc         1 ECH       0.040033
     92 H39B       -17.9200    18.4390     1.2790 hc         1 ECH       0.040033
     93 H40        -14.9560    18.7430     0.0710 hc         1 ECH       0.040033
     94 H40A       -16.0550    20.1290     0.0540 hc         1 ECH       0.040033
     95 H40B       -15.3810    19.5150    -1.4620 hc         1 ECH       0.040033
@<TRIPOS>BOND
     1     2     1 1
     2     1    33 1
     3     1     6 1
     4     1    32 1
     5     3     2 1
     6     2    42 1
     7     2    43 1
     8     3     4 1
     9     3    44 1
    10     3    45 1
    11     4     5 1
    12     4    46 1
    13     4    47 1
    14     5    34 1
    15     5     6 2
    16     6     7 1
    17     7     8 2
    18     7    48 1
    19     8     9 1
    20     8    49 1
    21     9    10 2
    22     9    35 1
    23    10    11 1
    24    10    50 1
    25    11    12 2
    26    11    51 1
    27    12    13 1
    28    12    52 1
    29    13    14 2
    30    13    36 1
    31    14    15 1
    32    14    53 1
    33    15    16 2
    34    15    54 1
    35    16    17 1
    36    16    55 1
    37    17    18 2
    38    17    56 1
    39    37    18 1
    40    18    19 1
    41    19    20 2
    42    19    57 1
    43    20    21 1
    44    20    58 1
    45    21    22 2
    46    21    59 1
    47    38    22 1
    48    22    23 1
    49    23    24 2
    50    23    60 1
    51    24    25 1
    52    24    61 1
    53    31    25 1
    54    25    26 2
    55    26    39 1
    56    26    27 1
    57    29    27 1
    58    27    28 2
    59    30    29 1
    60    29    62 1
    61    29    63 1
    62    31    30 1
    63    30    64 1
    64    30    65 1
    65    40    31 1
    66    41    31 1
    67    32    66 1
    68    32    67 1
    69    32    68 1
    70    33    69 1
    71    33    70 1
    72    33    71 1
    73    34    72 1
    74    34    73 1
    75    34    74 1
    76    35    75 1
    77    35    76 1
    78    35    77 1
    79    36    78 1
    80    36    79 1
    81    36    80 1
    82    37    81 1
    83    37    82 1
    84    37    83 1
    85    38    84 1
    86    38    85 1
    87    38    86 1
    88    39    87 1
    89    39    88 1
    90    39    89 1
    91    40    90 1
    92    40    91 1
    93    40    92 1
    94    41    93 1
    95    41    94 1
    96    41    95 1
@<TRIPOS>SUBSTRUCTURE
     1 ECH         1 TEMP              0 ****  ****    0 ROOT
