@<TRIPOS>MOLECULE
molecule
   42    44     1     0     0
SMALL
bcc


@<TRIPOS>ATOM
      1 C10          0.0000     0.0000     0.0000 c3         1 ECJ       0.290600
      2 C11          1.5070     0.0000     0.0000 c2         1 ECJ       0.105900
      3 C13          2.2530     0.0000     1.1180 ce         1 ECJ      -0.047100
      4 C15          3.6220    -0.0010     0.7700 c          1 ECJ       0.536300
      5 C17          3.6370    -0.0010    -0.7460 c3         1 ECJ       0.101800
      6 C19          3.6940     2.3620    -1.6280 cd         1 ECJ       0.485700
      7 C21          5.8190     2.6670    -1.9370 ca         1 ECJ      -0.184200
      8 C22          7.1230     3.1090    -2.2180 ca         1 ECJ       0.707200
      9 C25          7.9290     1.0630    -1.5150 ca         1 ECJ       0.643900
     10 C28          5.6520     1.3680    -1.4310 ca         1 ECJ       0.460800
     11 N18          4.3030     1.2010    -1.2510 na         1 ECJ      -0.218000
     12 N20          4.5850     3.2210    -2.0310 nc         1 ECJ      -0.645100
     13 N23          7.3490     4.3790    -2.7170 nv         1 ECJ      -1.033500
     14 N24          8.1350     2.2770    -1.9910 nb         1 ECJ      -0.857000
     15 N27          6.7250     0.6070    -1.2370 nb         1 ECJ      -0.741000
     16 O02         -2.8420     5.5900    -1.6480 o          1 ECJ      -0.965167
     17 O03         -4.0400     4.1630     0.0560 o          1 ECJ      -0.965167
     18 O04         -4.5150     3.6980    -2.3790 o          1 ECJ      -0.965167
     19 O05         -2.2080     3.0630    -1.2880 os         1 ECJ      -0.724800
     20 O07         -2.7070     1.4470     0.5850 o          1 ECJ      -0.857000
     21 O08         -2.7130     0.5280    -1.7660 o          1 ECJ      -0.857000
     22 O09         -0.4750     1.2210    -0.5720 os         1 ECJ      -0.623200
     23 O12          2.2520    -0.0070    -1.1180 os         1 ECJ      -0.297900
     24 O14          1.7640     0.0010     2.3900 os         1 ECJ      -0.411500
     25 O16          4.5780     0.0000     1.5210 o          1 ECJ      -0.501100
     26 O30          3.0050    -2.1830     3.1660 o          1 ECJ      -0.857000
     27 O31          0.7060    -2.2760     2.1280 o          1 ECJ      -0.857000
     28 O32          0.8790    -1.3450     4.4680 os         1 ECJ      -0.707800
     29 O34          0.0230    -1.7420     6.9210 o          1 ECJ      -0.925167
     30 O35         -1.3090    -2.7390     4.8860 o          1 ECJ      -0.925167
     31 O36          0.9610    -3.6310     5.5350 o          1 ECJ      -0.925167
     32 P01         -3.4150     4.1290    -1.2850 p5         1 ECJ       1.326900
     33 P06         -2.0410     1.5620    -0.7310 p5         1 ECJ       1.429800
     34 P29          1.5700    -1.4680     3.0180 p5         1 ECJ       1.405800
     35 P33          0.1560    -2.3920     5.4550 p5         1 ECJ       1.332900
     36 H1          -0.3610    -0.8380    -0.5840 h1         1 ECJ       0.086200
     37 H2          -0.3610    -0.0870     1.0180 h1         1 ECJ       0.086200
     38 H6           4.1270    -0.8940    -1.1150 h2         1 ECJ       0.097700
     39 H7           2.6260     2.5430    -1.5940 h5         1 ECJ       0.138800
     40 H8           8.7820     0.4180    -1.3450 h5         1 ECJ       0.021100
     41 H9           6.7070     4.7810    -3.3710 hn         1 ECJ       0.418800
     42 H10          8.1620     4.8900    -2.4340 hn         1 ECJ       0.418800
@<TRIPOS>BOND
     1    20    33 1
     2    17    32 1
     3    19    33 1
     4    19    32 1
     5    21    33 1
     6    33    22 1
     7    32    18 1
     8    32    16 1
     9    13     8 1
    10    12     6 2
    11    12     7 1
    12    22     1 1
    13     1     2 1
    14     8     7 ar
    15     8    14 ar
    16     6    11 1
    17     7    10 ar
    18    14     9 ar
    19    11    10 1
    20    11     5 1
    21    31    35 1
    22    10    15 ar
    23     4     3 1
    24     4     5 1
    25     4    25 2
    26     2     3 2
    27     2    23 1
    28     3    24 1
    29     9    15 ar
    30     5    23 1
    31    35    30 1
    32    35    28 1
    33    35    29 1
    34    24    34 1
    35    27    34 1
    36    28    34 1
    37    34    26 1
    38     1    36 1
    39     1    37 1
    40     5    38 1
    41     6    39 1
    42     9    40 1
    43    13    41 1
    44    13    42 1
@<TRIPOS>SUBSTRUCTURE
     1 ECJ         1 TEMP              0 ****  ****    0 ROOT
