@<TRIPOS>MOLECULE
ECL
   39    41     1     0     0
SMALL
bcc


@<TRIPOS>ATOM
      1 C1         -0.3940    0.0350   -0.2130 ca        1 ECL     -0.133300
      2 N1         -0.2910   -0.0510   -4.7000 na        1 ECL     -0.208900
      3 C2          0.9920    0.1710   -0.0760 ca        1 ECL     -0.104500
      4 CL2         1.7140   -1.7800    3.3120 cl        1 ECL     -0.091400
      5 C3          0.9760   -0.4910   -5.1200 cc        1 ECL      0.381400
      6 C5         -2.0060   -4.8670   -1.8870 ca        1 ECL     -0.126000
      7 C6          1.0360    1.6970   -5.1610 cd        1 ECL      0.287200
      8 C7         -0.2520    1.3480   -4.7170 cc        1 ECL     -0.257600
      9 C8         -1.1010    0.6750   -1.3630 c3        1 ECL      0.167700
     10 C9         -0.4700   -1.2350    1.8500 ca        1 ECL     -0.129000
     11 C10        -1.1190   -0.6680    0.7550 ca        1 ECL     -0.104500
     12 C11         0.9160   -1.0930    1.9780 ca        1 ECL      0.022400
     13 C13         1.6500   -0.3890    1.0180 ca        1 ECL     -0.129000
     14 C14        -3.3810   -5.0020   -2.1020 ca        1 ECL      0.030400
     15 C15        -4.1360   -3.9140   -2.5420 ca        1 ECL     -0.129000
     16 C16        -3.5090   -2.6820   -2.7720 ca        1 ECL      0.050400
     17 C17        -2.1310   -2.5280   -2.5600 ca        1 ECL     -0.090300
     18 C19        -1.3870   -0.8700   -4.2810 c3        1 ECL      0.013300
     19 N19         1.7870    0.5480   -5.4070 nd        1 ECL     -0.665000
     20 C20        -1.3730   -1.2460   -2.7760 c3        1 ECL      0.168400
     21 O20        -2.0030   -0.2030   -2.0300 os        1 ECL     -0.405600
     22 C21        -1.3970   -3.6380   -2.1130 ca        1 ECL     -0.104000
     23 H2          1.5700    0.7240   -0.8320 ha        1 ECL      0.147000
     24 H3          1.2320   -1.5510   -5.2100 h5        1 ECL      0.060100
     25 H5         -1.4090   -5.7240   -1.5370 ha        1 ECL      0.155000
     26 H6          1.4500    2.6920   -5.3190 h4        1 ECL      0.043100
     27 H7         -1.1100    1.9560   -4.4380 h4        1 ECL      0.180000
     28 H8         -0.3690    1.1050   -2.0980 h1        1 ECL      0.065700
     29 H8A        -1.7820    1.4910   -0.9870 h1        1 ECL      0.065700
     30 H9         -1.0460   -1.7880    2.6070 ha        1 ECL      0.150000
     31 H10        -2.2090   -0.7760    0.6410 ha        1 ECL      0.147000
     32 H13         2.7400   -0.2770    1.1220 ha        1 ECL      0.150000
     33 H15        -5.2200   -4.0210   -2.7090 ha        1 ECL      0.164000
     34 H19        -1.3660   -1.8220   -4.8830 h1        1 ECL      0.081700
     35 H19A       -2.3470   -0.3200   -4.4980 h1        1 ECL      0.081700
     36 H20        -0.3110   -1.3860   -2.4220 h1        1 ECL      0.069700
     37 H21        -0.3150   -3.5360   -1.9310 ha        1 ECL      0.146000
     38 CL4        -4.1390   -6.4950   -1.8260 cl        1 ECL     -0.077400
     39 CL8        -4.4970   -1.4100   -3.3180 cl        1 ECL     -0.072400
@<TRIPOS>BOND
     1    1    3 ar  
     2    1    9 1   
     3    1   11 ar  
     4    2    5 1   
     5    2    8 1   
     6    2   18 1   
     7    3   13 ar  
     8    3   23 1   
     9    4   12 1   
    10    5   19 2   
    11    5   24 1   
    12    6   14 ar  
    13    6   22 ar  
    14    6   25 1   
    15    7    8 2   
    16    7   19 1   
    17    7   26 1   
    18    8   27 1   
    19    9   21 1   
    20    9   28 1   
    21    9   29 1   
    22   10   11 ar  
    23   10   12 ar  
    24   10   30 1   
    25   11   31 1   
    26   12   13 ar  
    27   13   32 1   
    28   14   15 ar  
    29   14   38 1   
    30   15   16 ar  
    31   15   33 1   
    32   16   17 ar  
    33   16   39 1   
    34   17   20 1   
    35   17   22 ar  
    36   18   20 1   
    37   18   34 1   
    38   18   35 1   
    39   20   21 1   
    40   20   36 1   
    41   22   37 1   
@<TRIPOS>SUBSTRUCTURE
     1 ECL         1 TEMP              0 ****  ****    0 ROOT
