@<TRIPOS>MOLECULE
molecule
   39    41     1     0     0
SMALL
bcc


@<TRIPOS>ATOM
      1 C1           0.0000     0.0000     0.0000 ca         1 ECL      -0.085300
      2 N1          -0.1810    -0.1690    -4.3460 na         1 ECL      -0.132900
      3 C2           1.3830     0.0000     0.0000 ca         1 ECL      -0.097500
      4 Cl2          2.2490    -0.0060     3.8990 cl         1 ECL      -0.108400
      5 C3           1.1540    -0.0610    -4.2730 cc         1 ECL       0.325400
      6 C5          -2.6490    -5.1100    -2.7400 ca         1 ECL      -0.128000
      7 C6           0.3710     1.8880    -4.7240 cd         1 ECL       0.308200
      8 C7          -0.6700     1.0180    -4.6220 cc         1 ECL      -0.293600
      9 C8          -0.7530    -0.0010    -1.3060 c3         1 ECL       0.154700
     10 C9          -0.0020    -0.0110     2.3940 ca         1 ECL      -0.126000
     11 C10         -0.6920    -0.0050     1.1970 ca         1 ECL      -0.097500
     12 C11          1.3820     0.0000     2.3960 ca         1 ECL       0.034400
     13 C13          2.0740     0.0000     1.1970 ca         1 ECL      -0.126000
     14 C14         -4.0180    -5.0530    -2.9350 ca         1 ECL       0.050400
     15 C15         -4.6380    -3.8300    -3.1360 ca         1 ECL      -0.113000
     16 C16         -3.8880    -2.6650    -3.1420 ca         1 ECL       0.058400
     17 C17         -2.5180    -2.7280    -2.9460 ca         1 ECL      -0.073300
     18 C19         -0.7070    -1.5020    -4.1130 c3         1 ECL       0.014300
     19 N19          1.4810     1.2180    -4.5090 nd         1 ECL      -0.679000
     20 C20         -1.7020    -1.4620    -2.9520 c3         1 ECL       0.166400
     21 O20         -0.9900    -1.3480    -1.7170 os         1 ECL      -0.413600
     22 C21         -1.9000    -3.9450    -2.7460 ca         1 ECL      -0.096000
     23 H2           1.9240    -0.1970    -0.9170 ha         1 ECL       0.142000
     24 H3           1.8470    -0.8660    -4.0600 h5         1 ECL       0.067100
     25 H5          -2.1440    -6.0440    -2.9530 ha         1 ECL       0.155000
     26 H6           0.2980     2.9460    -4.9440 h4         1 ECL       0.043100
     27 H7          -1.7180     1.2620    -4.7470 h4         1 ECL       0.171000
     28 H8          -0.4810     0.8770    -1.8790 h1         1 ECL       0.055700
     29 H8A         -1.8180     0.0120    -1.1080 h1         1 ECL       0.055700
     30 H9          -0.5440    -0.0150     3.3320 ha         1 ECL       0.145500
     31 H10         -1.7750    -0.0050     1.1960 ha         1 ECL       0.142000
     32 H13          3.1570    -0.0000     1.1970 ha         1 ECL       0.145500
     33 H15         -5.7110    -3.7850    -3.2780 ha         1 ECL       0.163000
     34 H19         -1.2080    -1.8540    -5.0070 h1         1 ECL       0.078200
     35 H19A         0.1070    -2.1740    -3.8680 h1         1 ECL       0.078200
     36 H20         -2.3600    -0.6090    -3.0690 h1         1 ECL       0.070700
     37 H21         -0.9470    -4.1450    -2.2690 ha         1 ECL       0.166000
     38 Cl4         -4.9840    -6.5530    -2.9230 cl         1 ECL      -0.109400
     39 Cl8         -4.6920    -1.0880    -3.3690 cl         1 ECL      -0.111400
@<TRIPOS>BOND
     1     1     3 ar
     2     1     9 1
     3     1    11 ar
     4     2     5 1
     5     2     8 1
     6     2    18 1
     7     3    13 ar
     8     4    12 1
     9     5    19 2
    10    38    14 1
    11     6    14 ar
    12     6    22 ar
    13     7     8 2
    14     7    19 1
    15     9    21 1
    16    39    16 1
    17    10    11 ar
    18    10    12 ar
    19    12    13 ar
    20    14    15 ar
    21    15    16 ar
    22    16    17 ar
    23    17    20 1
    24    17    22 ar
    25    18    20 1
    26    20    21 1
    27     3    23 1
    28     5    24 1
    29     6    25 1
    30     7    26 1
    31     8    27 1
    32     9    28 1
    33     9    29 1
    34    10    30 1
    35    11    31 1
    36    13    32 1
    37    15    33 1
    38    18    34 1
    39    18    35 1
    40    20    36 1
    41    22    37 1
@<TRIPOS>SUBSTRUCTURE
     1 ECL         1 TEMP              0 ****  ****    0 ROOT
