@<TRIPOS>MOLECULE
molecule
   88    94     1     0     0
SMALL
bcc


@<TRIPOS>ATOM
      1 C10          0.0000     0.0000     0.0000 c3         1 ECM       0.135400
      2 C13          3.5470    -0.0010     1.4440 cc         1 ECM      -0.096400
      3 C15          3.9680    -2.5180     1.4350 c          1 ECM       0.725700
      4 C17          4.6230    -4.7040     2.1410 ca         1 ECM      -0.007400
      5 C20          4.5220    -7.4760     1.8720 ca         1 ECM      -0.034000
      6 C21          3.6130    -6.8250     2.7050 ca         1 ECM      -0.068800
      7 C22          3.6580    -5.4300     2.8430 ca         1 ECM      -0.042200
      8 C26          2.5060    -7.2810     3.5660 cd         1 ECM      -0.147400
      9 C02         -4.0380     0.0000    -0.6100 ca         1 ECM      -0.032800
     10 C03         -4.5660    -0.0000    -1.8890 ca         1 ECM      -0.018600
     11 C05         -3.7240    -0.0010    -2.9860 ca         1 ECM      -0.032800
     12 C06         -4.3020    -0.0000    -4.3790 c3         1 ECM      -0.047800
     13 C07         -2.3550    -0.0000    -2.8070 ca         1 ECM      -0.191000
     14 C08         -1.8230    -0.0000    -1.5250 ca         1 ECM       0.162100
     15 C11          1.5310     0.0000     0.0000 c3         1 ECM      -0.079400
     16 C12          2.0400     0.0000     1.4430 c3         1 ECM      -0.002200
     17 C14          4.3460    -1.0860     1.4380 cd         1 ECM      -0.108300
     18 C18          5.5150    -5.3650     1.3140 ca         1 ECM      -0.118000
     19 C19          5.4640    -6.7440     1.1810 ca         1 ECM      -0.194000
     20 C25          1.9750    -6.1610     4.1370 cc         1 ECM      -0.100100
     21 C27          2.0600    -8.6640     3.7650 c          1 ECM       0.908800
     22 C30          5.5150    -2.7040     3.2940 c3         1 ECM       0.103000
     23 C31          6.9070    -2.3170     2.7980 c3         1 ECM      -0.121400
     24 C32          6.7980    -1.6290     1.4310 c3         1 ECM       0.041300
     25 C35          5.7170     0.6780     1.4360 ca         1 ECM      -0.011200
     26 C36          4.3880     1.1430     1.4430 ca         1 ECM      -0.112800
     27 C37          4.1310     2.5210     1.4480 ca         1 ECM      -0.067000
     28 C38          5.1670     3.4100     1.4470 ca         1 ECM      -0.163000
     29 C39          6.4820     2.9660     1.4390 ca         1 ECM       0.055400
     30 C41          6.7680     1.6070     1.4330 ca         1 ECM      -0.008000
     31 C42          8.1770     1.1410     1.4220 cc         1 ECM      -0.271300
     32 C43          8.9340     0.8910     0.3140 cd         1 ECM      -0.049600
     33 C44          8.4930     1.0410    -1.1180 c3         1 ECM      -0.029800
     34 C48          8.9760     0.8800     2.5520 cc         1 ECM       0.361600
     35 C49          8.5500     1.0270     3.9890 c3         1 ECM      -0.111400
     36 C50         -2.6690     0.0060    -0.4260 ca         1 ECM      -0.191000
     37 N16          4.6830    -3.3120     2.2680 n          1 ECM      -0.389000
     38 N23          2.6530    -5.0670     3.7170 na         1 ECM      -0.075400
     39 N34          5.6740    -0.6910     1.4340 na         1 ECM      -0.042400
     40 N45         10.1510     0.4880     0.7360 na         1 ECM       0.065400
     41 N47         10.1520     0.4900     2.1360 nd         1 ECM      -0.520800
     42 O09         -0.4760    -0.0000    -1.3470 os         1 ECM      -0.323900
     43 O28          1.0260    -8.9270     4.5890 o          1 ECM      -0.843300
     44 O29          2.6230    -9.5740     3.1870 o          1 ECM      -0.843300
     45 O33          3.0750    -2.9520     0.7310 o          1 ECM      -0.589500
     46 Cl40         7.7800     4.1190     1.4350 cl         1 ECM      -0.113400
     47 H1          -0.3610    -0.8850     0.5110 h1         1 ECM       0.036200
     48 H2          -0.3610     0.8850     0.5110 h1         1 ECM       0.036200
     49 H3           4.4860    -8.5530     1.7650 ha         1 ECM       0.167000
     50 H4           3.2100    -3.2910     4.6710 h1         1 ECM       0.035700
     51 H5           2.1700    -3.0850     3.2550 h1         1 ECM       0.035700
     52 H6           1.4890    -3.6860     4.7730 h1         1 ECM       0.035700
     53 H7          -5.5820     0.8860     0.5590 hc         1 ECM       0.048200
     54 H8          -4.3700    -0.0000     1.4940 hc         1 ECM       0.048200
     55 H9          -5.5840    -0.8830     0.5590 hc         1 ECM       0.048200
     56 H10         -4.9120     0.8840    -4.5160 hc         1 ECM       0.048200
     57 H11         -3.4970    -0.0000    -5.1030 hc         1 ECM       0.048200
     58 H12         -4.9120    -0.8850    -4.5170 hc         1 ECM       0.048200
     59 H13         -1.6950    -0.0030    -3.6660 ha         1 ECM       0.146500
     60 H14          1.8920     0.8850    -0.5110 hc         1 ECM       0.067700
     61 H15          1.8920    -0.8850    -0.5110 hc         1 ECM       0.067700
     62 H16          1.6780    -0.8840     1.9530 hc         1 ECM       0.049700
     63 H17          1.6790     0.8850     1.9530 hc         1 ECM       0.049700
     64 H18          6.2600    -4.8000     0.7660 ha         1 ECM       0.108000
     65 H19          6.1680    -7.2500     0.5310 ha         1 ECM       0.117000
     66 H20          1.1360    -6.1480     4.8230 h4         1 ECM       0.182000
     67 H21          5.6230    -3.4060     4.1120 h1         1 ECM       0.058700
     68 H22          5.0180    -1.8130     3.6580 h1         1 ECM       0.058700
     69 H23          7.3640    -1.6360     3.5060 hc         1 ECM       0.060700
     70 H24          7.5150    -3.2080     2.7030 hc         1 ECM       0.060700
     71 H25          7.7150    -1.0900     1.2280 h1         1 ECM       0.072700
     72 H26          6.6380    -2.3790     0.6650 h1         1 ECM       0.072700
     73 H27          3.1100     2.8810     1.4550 ha         1 ECM       0.134000
     74 H28          4.9600     4.4730     1.4520 ha         1 ECM       0.138000
     75 H29          9.1870     1.6850    -1.6440 hc         1 ECM       0.054700
     76 H30          8.4740     0.0670    -1.5940 hc         1 ECM       0.054700
     77 H31          7.5020     1.4770    -1.1470 hc         1 ECM       0.054700
     78 H32         12.1220    -0.1690     0.4920 h1         1 ECM       0.053033
     79 H33         11.5530     0.9600    -0.7440 h1         1 ECM       0.053033
     80 H34         10.9920    -0.7180    -0.7530 h1         1 ECM       0.053033
     81 H35          8.9660     0.2160     4.5740 hc         1 ECM       0.052367
     82 H36          8.9080     1.9730     4.3770 hc         1 ECM       0.052367
     83 H37          7.4680     0.9980     4.0500 hc         1 ECM       0.052367
     84 H38         -2.2560     0.0060     0.5750 ha         1 ECM       0.146500
     85 C24          2.3620    -3.6930     4.1310 c3         1 ECM       0.043600
     86 C46         11.2780     0.1160    -0.1230 c3         1 ECM       0.066600
     87 C01         -4.9580     0.0010     0.5840 c3         1 ECM      -0.047800
     88 Cl04        -6.2880     0.0010    -2.1160 cl         1 ECM      -0.124400
@<TRIPOS>BOND
     1    87     9 1
     2     9    36 ar
     3     9    10 ar
     4    36    14 ar
     5    88    10 1
     6    10    11 ar
     7    44    21 1
     8    14    42 1
     9    14    13 ar
    10    42     1 1
    11    15    16 1
    12    15     1 1
    13    16     2 1
    14    20    38 1
    15    20     8 2
    16    85    38 1
    17    21     8 1
    18    21    43 1
    19    38     7 1
    20    11    13 ar
    21    11    12 1
    22     8     6 1
    23     2    26 1
    24     2    17 2
    25     7     6 ar
    26     7     4 ar
    27     6     5 ar
    28    27    26 ar
    29    27    28 ar
    30    45     3 2
    31    26    25 ar
    32     3    17 1
    33     3    37 1
    34    17    39 1
    35     4    37 1
    36     4    18 ar
    37    37    22 1
    38     5    19 ar
    39    28    29 ar
    40    22    23 1
    41    25    39 1
    42    25    30 ar
    43    18    19 ar
    44    39    24 1
    45    29    30 ar
    46    29    46 1
    47    30    31 1
    48    23    24 1
    49    33    32 1
    50    31    32 2
    51    31    34 1
    52    32    40 1
    53    34    35 1
    54    34    41 2
    55    40    41 1
    56    40    86 1
    57     1    47 1
    58     1    48 1
    59     5    49 1
    60    85    50 1
    61    85    51 1
    62    85    52 1
    63    87    53 1
    64    87    54 1
    65    87    55 1
    66    12    56 1
    67    12    57 1
    68    12    58 1
    69    13    59 1
    70    15    60 1
    71    15    61 1
    72    16    62 1
    73    16    63 1
    74    18    64 1
    75    19    65 1
    76    20    66 1
    77    22    67 1
    78    22    68 1
    79    23    69 1
    80    23    70 1
    81    24    71 1
    82    24    72 1
    83    27    73 1
    84    28    74 1
    85    33    75 1
    86    33    76 1
    87    33    77 1
    88    86    78 1
    89    86    79 1
    90    86    80 1
    91    35    81 1
    92    35    82 1
    93    35    83 1
    94    36    84 1
@<TRIPOS>SUBSTRUCTURE
     1 ECM         1 TEMP              0 ****  ****    0 ROOT
