@<TRIPOS>MOLECULE
ECM
   88    94     1     0     0
SMALL
bcc


@<TRIPOS>ATOM
      1 C10          0.0000     0.0000     0.0000 c3         1 ECM       0.200400
      2 C13          3.5470    -0.0010     1.4440 cc         1 ECM      -0.084400
      3 C15          3.9680    -2.5180     1.4350 c          1 ECM       0.653700
      4 C17          4.6230    -4.7040     2.1410 ca         1 ECM      -0.131400
      5 C20          4.5220    -7.4760     1.8720 ca         1 ECM       0.012000
      6 C21          3.6130    -6.8250     2.7050 ca         1 ECM      -0.068800
      7 C22          3.6580    -5.4300     2.8430 ca         1 ECM      -0.209200
      8 C26          2.5060    -7.2810     3.5660 cc         1 ECM      -0.127400
      9 C02         -4.0380     0.0000    -0.6100 ca         1 ECM      -0.036800
     10 C03         -4.5660    -0.0000    -1.8890 ca         1 ECM      -0.079600
     11 C05         -3.7240    -0.0010    -2.9860 ca         1 ECM      -0.036800
     12 C06         -4.3020    -0.0000    -4.3790 c3         1 ECM       0.056200
     13 C07         -2.3550    -0.0000    -2.8070 ca         1 ECM      -0.178500
     14 C08         -1.8230    -0.0000    -1.5250 ca         1 ECM       0.173100
     15 C11          1.5310     0.0000     0.0000 c3         1 ECM      -0.041400
     16 C12          2.0400     0.0000     1.4430 c3         1 ECM       0.070800
     17 C14          4.3460    -1.0860     1.4380 cd         1 ECM      -0.300300
     18 C18          5.5150    -5.3650     1.3140 ca         1 ECM      -0.087000
     19 C19          5.4640    -6.7440     1.1810 ca         1 ECM      -0.181000
     20 C25          1.9750    -6.1610     4.1370 cd         1 ECM      -0.260100
     21 C27          2.0600    -8.6640     3.7650 c          1 ECM       1.002800
     22 C30          5.5150    -2.7040     3.2940 c3         1 ECM       0.023000
     23 C31          6.9070    -2.3170     2.7980 c3         1 ECM      -0.061400
     24 C32          6.7980    -1.6290     1.4310 c3         1 ECM      -0.074700
     25 C35          5.7170     0.6780     1.4360 ca         1 ECM      -0.189200
     26 C36          4.3880     1.1430     1.4430 ca         1 ECM      -0.114800
     27 C37          4.1310     2.5210     1.4480 ca         1 ECM      -0.030000
     28 C38          5.1670     3.4100     1.4470 ca         1 ECM      -0.145000
     29 C39          6.4820     2.9660     1.4390 ca         1 ECM      -0.009600
     30 C41          6.7680     1.6070     1.4330 ca         1 ECM       0.019000
     31 C42          8.1770     1.1410     1.4220 cc         1 ECM      -0.276300
     32 C43          8.9340     0.8910     0.3140 cd         1 ECM      -0.220600
     33 C44          8.4930     1.0410    -1.1180 c3         1 ECM       0.089200
     34 C48          8.9760     0.8800     2.5520 cc         1 ECM       0.385600
     35 C49          8.5500     1.0270     3.9890 c3         1 ECM      -0.010400
     36 C50         -2.6690     0.0060    -0.4260 ca         1 ECM      -0.178500
     37 N16          4.6830    -3.3120     2.2680 n          1 ECM      -0.009000
     38 N23          2.6530    -5.0670     3.7170 na         1 ECM       0.385600
     39 N34          5.6740    -0.6910     1.4340 na         1 ECM       0.438600
     40 N45         10.1510     0.4880     0.7360 na         1 ECM       0.492400
     41 N47         10.1520     0.4900     2.1360 nd         1 ECM      -0.657800
     42 O09         -0.4760    -0.0000    -1.3470 os         1 ECM      -0.300900
     43 O28          1.0260    -8.9270     4.5890 o          1 ECM      -0.892300
     44 O29          2.6230    -9.5740     3.1870 o          1 ECM      -0.892300
     45 O33          3.0750    -2.9520     0.7310 o          1 ECM      -0.636500
     46 Cl40         7.7800     4.1190     1.4350 cl         1 ECM      -0.041400
     47 H1          -0.3610    -0.8850     0.5110 h1         1 ECM       0.002700
     48 H2          -0.3610     0.8850     0.5110 h1         1 ECM       0.002700
     49 H3           4.4860    -8.5530     1.7650 ha         1 ECM       0.135000
     50 H4           3.2100    -3.2910     4.6710 h1         1 ECM       0.011033
     51 H5           2.1700    -3.0850     3.2550 h1         1 ECM       0.011033
     52 H6           1.4890    -3.6860     4.7730 h1         1 ECM       0.011033
     53 H7          -5.5820     0.8860     0.5590 hc         1 ECM       0.012033
     54 H8          -4.3700    -0.0000     1.4940 hc         1 ECM       0.012033
     55 H9          -5.5840    -0.8830     0.5590 hc         1 ECM       0.012033
     56 H10         -4.9120     0.8840    -4.5160 hc         1 ECM       0.012033
     57 H11         -3.4970    -0.0000    -5.1030 hc         1 ECM       0.012033
     58 H12         -4.9120    -0.8850    -4.5170 hc         1 ECM       0.012033
     59 H13         -1.6950    -0.0030    -3.6660 ha         1 ECM       0.126000
     60 H14          1.8920     0.8850    -0.5110 hc         1 ECM       0.036700
     61 H15          1.8920    -0.8850    -0.5110 hc         1 ECM       0.036700
     62 H16          1.6780    -0.8840     1.9530 hc         1 ECM       0.017200
     63 H17          1.6790     0.8850     1.9530 hc         1 ECM       0.017200
     64 H18          6.2600    -4.8000     0.7660 ha         1 ECM       0.084000
     65 H19          6.1680    -7.2500     0.5310 ha         1 ECM       0.094000
     66 H20          1.1360    -6.1480     4.8230 h4         1 ECM       0.158000
     67 H21          5.6230    -3.4060     4.1120 h1         1 ECM       0.034200
     68 H22          5.0180    -1.8130     3.6580 h1         1 ECM       0.034200
     69 H23          7.3640    -1.6360     3.5060 hc         1 ECM       0.033200
     70 H24          7.5150    -3.2080     2.7030 hc         1 ECM       0.033200
     71 H25          7.7150    -1.0900     1.2280 h1         1 ECM       0.049200
     72 H26          6.6380    -2.3790     0.6650 h1         1 ECM       0.049200
     73 H27          3.1100     2.8810     1.4550 ha         1 ECM       0.103000
     74 H28          4.9600     4.4730     1.4520 ha         1 ECM       0.111000
     75 H29          9.1870     1.6850    -1.6440 hc         1 ECM       0.016033
     76 H30          8.4740     0.0670    -1.5940 hc         1 ECM       0.016033
     77 H31          7.5020     1.4770    -1.1470 hc         1 ECM       0.016033
     78 H32         12.1220    -0.1690     0.4920 h1         1 ECM       0.020700
     79 H33         11.5530     0.9600    -0.7440 h1         1 ECM       0.020700
     80 H34         10.9920    -0.7180    -0.7530 h1         1 ECM       0.020700
     81 H35          8.9660     0.2160     4.5740 hc         1 ECM       0.014700
     82 H36          8.9080     1.9730     4.3770 hc         1 ECM       0.014700
     83 H37          7.4680     0.9980     4.0500 hc         1 ECM       0.014700
     84 H38         -2.2560     0.0060     0.5750 ha         1 ECM       0.126000
     85 C24          2.3620    -3.6930     4.1310 c3         1 ECM      -0.020400
     86 C46         11.2780     0.1160    -0.1230 c3         1 ECM       0.022600
     87 C01         -4.9580     0.0010     0.5840 c3         1 ECM       0.056200
     88 Cl04        -6.2880     0.0010    -2.1160 cl         1 ECM      -0.041400
@<TRIPOS>BOND
     1     1    15 1   
     2     1    42 1   
     3     1    47 1   
     4     1    48 1   
     5     2    16 1   
     6     2    17 2   
     7     2    26 1   
     8     3    17 1   
     9     3    37 1   
    10     3    45 2   
    11     4     7 ar  
    12     4    18 ar  
    13     4    37 1   
    14     5     6 ar  
    15     5    19 ar  
    16     5    49 1   
    17     6     7 ar  
    18     6     8 1   
    19     7    38 1   
    20     8    20 2   
    21     8    21 1   
    22     9    10 ar  
    23     9    36 ar  
    24     9    87 1   
    25    10    11 ar  
    26    10    88 1   
    27    11    12 1   
    28    11    13 ar  
    29    12    56 1   
    30    12    57 1   
    31    12    58 1   
    32    13    14 ar  
    33    13    59 1   
    34    14    36 ar  
    35    14    42 1   
    36    15    16 1   
    37    15    60 1   
    38    15    61 1   
    39    16    62 1   
    40    16    63 1   
    41    17    39 1   
    42    18    19 ar  
    43    18    64 1   
    44    19    65 1   
    45    20    38 1   
    46    20    66 1   
    47    21    43 1   
    48    21    44 1   
    49    22    23 1   
    50    22    37 1   
    51    22    67 1   
    52    22    68 1   
    53    23    24 1   
    54    23    69 1   
    55    23    70 1   
    56    24    39 1   
    57    24    71 1   
    58    24    72 1   
    59    25    26 ar  
    60    25    30 ar  
    61    25    39 1   
    62    26    27 ar  
    63    27    28 ar  
    64    27    73 1   
    65    28    29 ar  
    66    28    74 1   
    67    29    30 ar  
    68    29    46 1   
    69    30    31 1   
    70    31    32 2   
    71    31    34 1   
    72    32    33 1   
    73    32    40 1   
    74    33    75 1   
    75    33    76 1   
    76    33    77 1   
    77    34    35 1   
    78    34    41 2   
    79    35    81 1   
    80    35    82 1   
    81    35    83 1   
    82    36    84 1   
    83    38    85 1   
    84    40    41 1   
    85    40    86 1   
    86    50    85 1   
    87    51    85 1   
    88    52    85 1   
    89    53    87 1   
    90    54    87 1   
    91    55    87 1   
    92    78    86 1   
    93    79    86 1   
    94    80    86 1   
@<TRIPOS>SUBSTRUCTURE
     1 ECM         1 TEMP              0 ****  ****    0 ROOT
