@<TRIPOS>MOLECULE
molecule
   39    41     1     0     0
SMALL
bcc


@<TRIPOS>ATOM
      1 C1           0.0000     0.0000     0.0000 ca         1 ECN      -0.089300
      2 C2           1.3820     0.0000     0.0000 ca         1 ECN      -0.097500
      3 C6          -4.3520     1.8320    -1.8630 cc         1 ECN       0.312200
      4 C7          -4.0650     0.8900    -2.7810 cd         1 ECN      -0.279600
      5 C9          -0.0020    -0.0020     2.3940 ca         1 ECN      -0.125000
      6 C10         -0.6930    -0.0020     1.1960 ca         1 ECN      -0.097500
      7 C11          1.3820    -0.0010     2.3940 ca         1 ECN       0.036400
      8 Cl2          2.2500    -0.0020     3.8980 cl         1 ECN      -0.108400
      9 C14         -1.4080    -2.7960    -5.0470 ca         1 ECN       0.038400
     10 C15         -1.0240    -3.9530    -5.7010 ca         1 ECN      -0.117000
     11 C16         -0.5250    -5.0220    -4.9780 ca         1 ECN       0.040400
     12 C17         -0.4100    -4.9330    -3.6020 ca         1 ECN      -0.123000
     13 Cl8         -0.0420    -6.4740    -5.7970 cl         1 ECN      -0.091400
     14 N19         -4.0980     1.3190    -0.6500 nc         1 ECN      -0.699000
     15 C19         -3.2070    -1.4870    -2.6800 c3         1 ECN       0.022300
     16 C20         -1.7030    -1.4440    -2.9600 c3         1 ECN       0.172400
     17 O20         -0.9910    -1.3380    -1.7260 os         1 ECN      -0.422600
     18 C5          -1.2890    -2.7070    -3.6710 ca         1 ECN      -0.092300
     19 N1          -3.6300    -0.2130    -2.0970 na         1 ECN      -0.193900
     20 C3          -3.6660     0.0950    -0.7820 cd         1 ECN       0.391400
     21 C8          -0.7540     0.0070    -1.3060 c3         1 ECN       0.167700
     22 C13          2.0730     0.0000     1.1960 ca         1 ECN      -0.125000
     23 C21         -0.7950    -3.7770    -2.9500 ca         1 ECN      -0.080000
     24 H2           1.9230     0.0010    -0.9380 ha         1 ECN       0.140500
     25 H10         -1.7760    -0.0020     1.1960 ha         1 ECN       0.140500
     26 H8C1        -0.1680     0.5220    -2.0580 h1         1 ECN       0.048700
     27 H8C2        -1.7000     0.5170    -1.1730 h1         1 ECN       0.048700
     28 H13          3.1570     0.0000     1.1960 ha         1 ECN       0.146000
     29 H6          -4.7220     2.8290    -2.0680 h4         1 ECN       0.043100
     30 H7          -4.1610     0.9860    -3.8560 h4         1 ECN       0.175000
     31 H9          -0.5440    -0.0030     3.3320 ha         1 ECN       0.146000
     32 H15         -1.1140    -4.0220    -6.7790 ha         1 ECN       0.161000
     33 H17         -0.0220    -5.7710    -3.0360 ha         1 ECN       0.153000
     34 H21         -0.7040    -3.7080    -1.8730 ha         1 ECN       0.165000
     35 H3          -3.3830    -0.5650     0.0290 h5         1 ECN       0.068100
     36 H191        -3.7420    -1.6560    -3.6060 h1         1 ECN       0.077700
     37 H192        -3.4220    -2.2910    -1.9860 h1         1 ECN       0.077700
     38 H20         -1.4760    -0.5880    -3.5830 h1         1 ECN       0.068700
     39 Cl4         -2.0340    -1.4540    -5.9530 cl         1 ECN      -0.100400
@<TRIPOS>BOND
     1     1     2 ar
     2     3     4 2
     3     1     6 ar
     4     5     6 ar
     5     5     7 ar
     6     7     8 1
     7    39     9 1
     8     9    10 ar
     9    10    11 ar
    10    11    12 ar
    11    11    13 1
    12     3    14 1
    13    15    16 1
    14    16    17 1
    15     9    18 ar
    16    16    18 1
    17     4    19 1
    18    15    19 1
    19    14    20 2
    20    19    20 1
    21     1    21 1
    22    17    21 1
    23     2    22 ar
    24     7    22 ar
    25    12    23 ar
    26    18    23 ar
    27     2    24 1
    28     6    25 1
    29    21    26 1
    30    21    27 1
    31    22    28 1
    32     3    29 1
    33     4    30 1
    34     5    31 1
    35    10    32 1
    36    12    33 1
    37    23    34 1
    38    20    35 1
    39    15    36 1
    40    15    37 1
    41    16    38 1
@<TRIPOS>SUBSTRUCTURE
     1 ECN         1 TEMP              0 ****  ****    0 ROOT
