@<TRIPOS>MOLECULE
ECN
   39    39     1     0     0
SMALL
bcc


@<TRIPOS>ATOM
      1 C1         -0.2860   -0.2400   -0.1940 c3        1 ECN     -0.161000
      2 C2          1.0720   -0.8200   -0.3500 c2        1 ECN     -0.060000
      3 C6         -4.7800    2.1700   -2.7650 c3        1 ECN     -0.222000
      4 C7         -3.9150    0.9800   -2.3050 c1        1 ECN     -0.067000
      5 C9          3.1630   -1.6410    2.4710 c1        1 ECN     -0.131000
      6 C10         3.3460   -2.4440    3.3400 c1        1 ECN     -0.166000
      7 C11         2.9550   -0.6960    1.4530 c2        1 ECN      0.076000
      8 CL2         4.0640    0.6140    1.4350 cl        1 ECN     -0.015000
      9 C14        -1.4520   -3.4990   -3.6190 c2        1 ECN     -0.023000
     10 C15        -0.5620   -2.8950   -4.4300 c2        1 ECN     -0.260000
     11 C16        -0.1780   -3.2530   -5.7570 c1        1 ECN      0.041000
     12 C17        -2.2370   -4.3450   -0.2070 c2        1 ECN     -0.152000
     13 CL8         0.8230   -4.5260   -6.0510 cl        1 ECN      0.027000
     14 N19        -5.1370    1.9050   -4.1740 n2        1 ECN     -0.157000
     15 C19        -3.1680   -1.0830   -3.5130 c3        1 ECN     -0.038000
     16 C20        -2.2400   -1.4340   -2.3280 c3        1 ECN      0.075000
     17 O20        -1.0230   -0.7030   -2.4790 os        1 ECN     -0.287000
     18 C5         -1.9280   -2.9140   -2.3660 c2        1 ECN     -0.064000
     19 N1         -3.8380    0.1800   -3.3810 n3        1 ECN     -0.204000
     20 C3         -4.5850    0.7670   -4.4910 c2        1 ECN     -0.063000
     21 C8         -0.8170    0.3180   -1.5050 c3        1 ECN     -0.033000
     22 C13         2.0020   -0.7580    0.5570 c1        1 ECN     -0.163000
     23 C21        -2.0820   -3.6350   -1.2800 c1        1 ECN     -0.113000
     24 H2          1.2560   -1.3400   -1.3100 ha        1 ECN      0.156000
     25 H10        -0.9760   -1.0490    0.1740 hc        1 ECN      0.105000
     26 H8C1       -1.7700    0.8880   -1.3250 h1        1 ECN      0.115000
     27 H8C2       -0.0550    0.9870   -1.9910 h1        1 ECN      0.115000
     28 H13        -0.2870    0.5810    0.5710 hc        1 ECN      0.105000
     29 H6         -5.7070    2.2470   -2.1390 h1        1 ECN      0.151500
     30 H7         -4.2070    3.1300   -2.6870 h1        1 ECN      0.151500
     31 H9          3.5110   -3.1540    4.1100 ha        1 ECN      0.228000
     32 H15        -0.1500   -1.9010   -4.1300 ha        1 ECN      0.208000
     33 H17        -3.1920   -4.8340    0.0410 ha        1 ECN      0.146000
     34 H21        -1.4220   -4.4990    0.5170 ha        1 ECN      0.146000
     35 H3         -4.6340    0.2580   -5.4630 h5        1 ECN      0.202000
     36 H191       -3.9460   -1.8940   -3.6050 h1        1 ECN      0.110000
     37 H192       -2.5490   -1.0680   -4.4570 h1        1 ECN      0.110000
     38 H20        -2.7450   -1.1800   -1.3520 h1        1 ECN      0.130000
     39 CL4        -2.1310   -5.0080   -4.0400 cl        1 ECN     -0.019000
@<TRIPOS>BOND
     1    1    2 1   
     2    1   21 1   
     3    1   25 1   
     4    1   28 1   
     5    2   22 1   
     6    2   24 1   
     7    3    4 1   
     8    3   14 1   
     9    3   29 1   
    10    3   30 1   
    11    4   19 1   
    12    5    6 1   
    13    5    7 1   
    14    6   31 1   
    15    7    8 1   
    16    7   22 1   
    17    9   10 1   
    18    9   18 1   
    19    9   39 1   
    20   10   11 1   
    21   10   32 1   
    22   11   13 1   
    23   12   23 1   
    24   12   33 1   
    25   12   34 1   
    26   14   20 1   
    27   15   16 1   
    28   15   19 1   
    29   15   36 1   
    30   15   37 1   
    31   16   17 1   
    32   16   18 1   
    33   16   38 1   
    34   17   21 1   
    35   18   23 1   
    36   19   20 1   
    37   20   35 1   
    38   21   26 1   
    39   21   27 1   
@<TRIPOS>SUBSTRUCTURE
     1 ECN         1 TEMP              0 ****  ****    0 ROOT
