@<TRIPOS>MOLECULE
ECO
   50    53     1     0     0
SMALL
bcc


@<TRIPOS>ATOM
      1 C1          0.1120    0.0240    0.0310 ca        1 ECO     -0.123000
      2 C2          1.5020    0.1220    0.0510 ca        1 ECO     -0.177000
      3 C3          2.1550    0.1220    1.2890 ca        1 ECO      0.132100
      4 O3          3.5230    0.2300    1.3080 oh        1 ECO     -0.526100
      5 C4          1.4200    0.0140    2.4790 ca        1 ECO     -0.178000
      6 C5          0.0310   -0.1180    2.4480 ca        1 ECO     -0.106900
      7 C6         -0.7000   -0.2560    3.7240 ce        1 ECO      0.374900
      8 C7         -2.1750    0.0460    3.6250 c3        1 ECO     -0.101700
      9 C8         -2.7340   -0.6960    2.4230 c3        1 ECO     -0.049700
     10 C9         -2.1350   -0.0970    1.1390 c3        1 ECO     -0.002400
     11 C10        -0.6400   -0.0940    1.2030 ca        1 ECO     -0.111300
     12 C11        -2.6940   -0.7850   -0.1030 c3        1 ECO     -0.071400
     13 C12        -4.2150   -0.8460   -0.1380 c3        1 ECO     -0.062400
     14 C13        -4.7690   -1.4390    1.1440 c3        1 ECO     -0.043000
     15 C14        -4.2390   -0.5870    2.3220 c3        1 ECO     -0.062700
     16 C15        -5.1140   -0.9880    3.5020 c3        1 ECO     -0.069400
     17 C16        -6.4850   -1.2770    2.8850 c3        1 ECO     -0.116400
     18 C17        -6.2960   -1.2830    1.3520 c3        1 ECO      0.138100
     19 O17        -6.9900   -2.3470    0.7240 oh        1 ECO     -0.593800
     20 C18        -4.4100   -2.9120    1.2430 c3        1 ECO     -0.077100
     21 N19        -0.2340   -0.6250    4.8960 n2        1 ECO     -0.424200
     22 O19         1.0150   -1.0230    4.9530 os        1 ECO     -0.171300
     23 C19         1.7140   -0.7500    6.2000 c3        1 ECO      0.012400
     24 C20         3.2080   -0.5480    5.8540 c         1 ECO      0.920600
     25 O20         4.0170   -0.8040    6.7860 o         1 ECO     -0.834800
     26 O21         3.5430   -0.1170    4.7140 o         1 ECO     -0.834800
     27 HC1        -0.3920    0.0440   -0.9470 ha        1 ECO      0.113000
     28 HC2         2.0790    0.2010   -0.8790 ha        1 ECO      0.131000
     29 HO3         3.8120    0.1550    2.2400 ho        1 ECO      0.469000
     30 HC4         1.9890    0.0300    3.4370 ha        1 ECO      0.234000
     31 HC71       -2.7330   -0.2610    4.5480 hc        1 ECO      0.050700
     32 HC72       -2.3070    1.1530    3.5000 hc        1 ECO      0.050700
     33 HC8        -2.4350   -1.7770    2.5050 hc        1 ECO      0.070700
     34 HC9        -2.4570    0.9880    1.0910 hc        1 ECO      0.043700
     35 H111       -2.3600   -0.2260   -1.0170 hc        1 ECO      0.043200
     36 H112       -2.2700   -1.8210   -0.1730 hc        1 ECO      0.043200
     37 H121       -4.5410   -1.4650   -1.0130 hc        1 ECO      0.037200
     38 H122       -4.6270    0.1880   -0.2800 hc        1 ECO      0.037200
     39 H14        -4.4800    0.4940    2.0940 hc        1 ECO      0.041700
     40 H151       -4.7050   -1.8960    4.0110 hc        1 ECO      0.048700
     41 H152       -5.1720   -0.1700    4.2600 hc        1 ECO      0.048700
     42 H161       -7.2280   -0.4980    3.1790 hc        1 ECO      0.040700
     43 H162       -6.8690   -2.2710    3.2250 hc        1 ECO      0.040700
     44 H17        -6.6470   -0.3100    0.9100 h1        1 ECO      0.029700
     45 H17O       -7.9090   -2.2740    1.0060 ho        1 ECO      0.392000
     46 H181       -4.9180   -3.4740    0.4210 hc        1 ECO      0.040700
     47 H182       -4.7550   -3.3290    2.2200 hc        1 ECO      0.040700
     48 H183       -3.3090   -3.0710    1.1550 hc        1 ECO      0.040700
     49 H191        1.5710   -1.6410    6.8600 h1        1 ECO      0.036700
     50 H192        1.3250    0.1670    6.7030 h1        1 ECO      0.036700
@<TRIPOS>BOND
     1    1    2 ar  
     2    1   11 ar  
     3    1   27 1   
     4    2    3 ar  
     5    2   28 1   
     6    3    4 1   
     7    3    5 ar  
     8    4   29 1   
     9    5    6 ar  
    10    5   30 1   
    11    6    7 1   
    12    6   11 ar  
    13    7    8 1   
    14    7   21 2   
    15    8    9 1   
    16    8   31 1   
    17    8   32 1   
    18    9   10 1   
    19    9   15 1   
    20    9   33 1   
    21   10   11 1   
    22   10   12 1   
    23   10   34 1   
    24   12   13 1   
    25   12   35 1   
    26   12   36 1   
    27   13   14 1   
    28   13   37 1   
    29   13   38 1   
    30   14   15 1   
    31   14   18 1   
    32   14   20 1   
    33   15   16 1   
    34   15   39 1   
    35   16   17 1   
    36   16   40 1   
    37   16   41 1   
    38   17   18 1   
    39   17   42 1   
    40   17   43 1   
    41   18   19 1   
    42   18   44 1   
    43   19   45 1   
    44   20   46 1   
    45   20   47 1   
    46   20   48 1   
    47   21   22 1   
    48   22   23 1   
    49   23   24 1   
    50   23   49 1   
    51   23   50 1   
    52   24   25 1   
    53   24   26 1   
@<TRIPOS>SUBSTRUCTURE
     1 ECO         1 TEMP              0 ****  ****    0 ROOT
