@<TRIPOS>MOLECULE
ECP
   62    63     1     0     0
SMALL
bcc


@<TRIPOS>ATOM
      1 OAZ         2.7940   -1.6590   -0.6470 o         1 ECP     -0.958833
      2 PAW         3.7680   -0.5210   -0.5110 p5        1 ECP      1.459900
      3 OBA         3.7530    0.1620    0.8280 o         1 ECP     -0.958833
      4 OBC         5.1440   -0.8040   -1.0470 o         1 ECP     -0.958833
      5 OAV         3.1020    0.7030   -1.6380 os        1 ECP     -0.800800
      6 PAU         2.4910    1.7260   -2.6280 p5        1 ECP      1.574800
      7 OAY         1.2160    2.3860   -2.2170 o         1 ECP     -0.933000
      8 OBB         2.5930    1.3970   -4.0820 o         1 ECP     -0.933000
      9 OAT         3.5870    3.0540   -2.5240 os        1 ECP     -0.560200
     10 CAS         3.1830    4.0480   -3.3900 c3        1 ECP      0.193600
     11 CAQ         4.1500    5.1840   -3.3620 c2        1 ECP     -0.046200
     12 CAK         4.0930    6.2930   -4.1220 c2        1 ECP     -0.288400
     13 CAR         3.0220    6.5510   -5.1090 c3        1 ECP     -0.017900
     14 CAL         5.1350    7.3540   -4.0170 c3        1 ECP     -0.009200
     15 CAM         6.2990    7.0660   -4.9540 c3        1 ECP     -0.084400
     16 CAJ         7.3410    8.1760   -4.9390 c3        1 ECP     -0.019500
     17 CAE         8.7390    7.6970   -5.4340 c3        1 ECP     -0.028000
     18 CAN         8.6020    7.2360   -6.8750 c3        1 ECP     -0.086100
     19 CAF         9.2120    6.5300   -4.5630 c3        1 ECP     -0.078400
     20 CAA        10.6660    6.1800   -4.7870 c3        1 ECP     -0.076400
     21 CAB        11.5720    7.3600   -4.5290 c3        1 ECP     -0.067400
     22 CAC        11.2160    8.5840   -5.3790 c3        1 ECP     -0.040000
     23 CAO        12.0060    9.7680   -4.8090 c3        1 ECP     -0.083600
     24 CAP        11.6910    8.3720   -6.8090 c3        1 ECP     -0.083600
     25 CAD         9.7130    8.8820   -5.2400 c3        1 ECP     -0.043700
     26 CAG         9.2750   10.0730   -6.0780 c3        1 ECP     -0.069400
     27 CAH         7.8900   10.5260   -5.6610 c3        1 ECP     -0.045200
     28 CAI         6.9150    9.3940   -5.7070 c2        1 ECP     -0.103400
     29 CAX         5.7610    9.5230   -6.3680 c2        1 ECP     -0.230000
     30 H4          3.1130    3.6290   -4.4390 h1        1 ECP      0.041700
     31 H5          2.1550    4.4130   -3.0940 h1        1 ECP      0.041700
     32 H6          4.9740    5.0480   -2.6380 ha        1 ECP      0.124000
     33 H9          2.4130    5.6300   -5.2870 hc        1 ECP      0.015033
     34 H10         2.3390    7.3600   -4.7440 hc        1 ECP      0.015033
     35 H11         3.4570    6.8880   -6.0850 hc        1 ECP      0.015033
     36 H12         4.6920    8.3560   -4.2590 hc        1 ECP      0.016700
     37 H13         5.5230    7.4110   -2.9650 hc        1 ECP      0.016700
     38 H14         6.7530    6.0960   -4.6230 hc        1 ECP      0.054200
     39 H15         5.9200    6.9040   -5.9960 hc        1 ECP      0.054200
     40 H16         7.4690    8.4990   -3.8620 hc        1 ECP      0.049700
     41 H17         9.5900    6.9680   -7.3160 hc        1 ECP      0.034700
     42 H18         7.9440    6.3320   -6.9160 hc        1 ECP      0.034700
     43 H19         8.1350    8.0330   -7.5030 hc        1 ECP      0.034700
     44 H20         9.0520    6.7920   -3.4840 hc        1 ECP      0.062700
     45 H21         8.5980    5.6160   -4.7830 hc        1 ECP      0.062700
     46 H22        10.9480    5.3410   -4.0960 hc        1 ECP      0.041200
     47 H23        10.8080    5.8060   -5.8350 hc        1 ECP      0.041200
     48 H24        12.6360    7.0710   -4.7350 hc        1 ECP      0.030200
     49 H25        11.5020    7.6430   -3.4450 hc        1 ECP      0.030200
     50 H26        13.0730    9.4750   -4.6570 hc        1 ECP      0.026867
     51 H27        11.9800   10.6360   -5.5100 hc        1 ECP      0.026867
     52 H28        11.5850   10.0880   -3.8260 hc        1 ECP      0.026867
     53 H29        11.4750    7.3350   -7.1590 hc        1 ECP      0.026867
     54 H30        11.2030    9.0950   -7.5040 hc        1 ECP      0.026867
     55 H31        12.7980    8.5220   -6.8670 hc        1 ECP      0.026867
     56 H32         9.5850    9.1810   -4.1530 hc        1 ECP      0.042700
     57 H33         9.9920   10.9250   -5.9460 hc        1 ECP      0.030700
     58 H34         9.2700    9.8030   -7.1660 hc        1 ECP      0.030700
     59 H35         7.9260   10.9270   -4.6120 hc        1 ECP      0.032200
     60 H36         7.5580   11.3650   -6.3270 hc        1 ECP      0.032200
     61 H38         5.0000    8.7320   -6.4170 ha        1 ECP      0.114000
     62 H39         5.5000   10.4480   -6.8980 ha        1 ECP      0.114000
@<TRIPOS>BOND
     1    1    2 1   
     2    2    3 1   
     3    2    4 1   
     4    2    5 1   
     5    5    6 1   
     6    6    7 1   
     7    6    8 1   
     8    6    9 1   
     9    9   10 1   
    10   10   11 1   
    11   10   30 1   
    12   10   31 1   
    13   11   12 2   
    14   11   32 1   
    15   12   13 1   
    16   12   14 1   
    17   13   33 1   
    18   13   34 1   
    19   13   35 1   
    20   14   15 1   
    21   14   36 1   
    22   14   37 1   
    23   15   16 1   
    24   15   38 1   
    25   15   39 1   
    26   16   17 1   
    27   16   28 1   
    28   16   40 1   
    29   17   18 1   
    30   17   19 1   
    31   17   25 1   
    32   18   41 1   
    33   18   42 1   
    34   18   43 1   
    35   19   20 1   
    36   19   44 1   
    37   19   45 1   
    38   20   21 1   
    39   20   46 1   
    40   20   47 1   
    41   21   22 1   
    42   21   48 1   
    43   21   49 1   
    44   22   23 1   
    45   22   24 1   
    46   22   25 1   
    47   23   50 1   
    48   23   51 1   
    49   23   52 1   
    50   24   53 1   
    51   24   54 1   
    52   24   55 1   
    53   25   26 1   
    54   25   56 1   
    55   26   27 1   
    56   26   57 1   
    57   26   58 1   
    58   27   28 1   
    59   27   59 1   
    60   27   60 1   
    61   28   29 2   
    62   29   61 1   
    63   29   62 1   
@<TRIPOS>SUBSTRUCTURE
     1 ECP         1 TEMP              0 ****  ****    0 ROOT
