@<TRIPOS>MOLECULE
molecule
   62    63     1     0     0
SMALL
bcc


@<TRIPOS>ATOM
      1 OAZ          0.0000     0.0000     0.0000 o          1 ECP      -0.942500
      2 PAW          1.6100     0.0000     0.0000 p5         1 ECP       1.291900
      3 OBA          2.1460     0.0000     1.5190 o          1 ECP      -0.942500
      4 OBC          2.1030    -1.2080    -0.6970 o          1 ECP      -0.942500
      5 OAV          2.1460     1.3160    -0.7580 os         1 ECP      -0.699800
      6 PAU          2.2370     1.7550    -2.3040 p5         1 ECP       1.397800
      7 OAY          0.7980     2.2820    -2.7960 o          1 ECP      -0.849500
      8 OBB          2.6440     0.5930    -3.1250 o          1 ECP      -0.849500
      9 OAT          3.3230     2.9330    -2.4640 os         1 ECP      -0.540200
     10 CAS          3.7100     3.4690    -3.7310 c3         1 ECP       0.235600
     11 CAQ          4.7390     4.5500    -3.5260 c2         1 ECP      -0.463200
     12 CAK          4.6400     5.6810    -4.1800 c2         1 ECP      -0.069400
     13 CAR          3.5800     5.8500    -5.2370 c3         1 ECP      -0.111900
     14 CAL          5.5860     6.8140    -3.8740 c3         1 ECP      -0.043200
     15 CAM          6.7620     6.7740    -4.8510 c3         1 ECP      -0.078400
     16 CAJ          7.6690     7.9820    -4.6090 c3         1 ECP      -0.022500
     17 CAE          8.9830     7.8120    -5.3980 c3         1 ECP      -0.044000
     18 CAN          8.6200     7.4890    -6.8480 c3         1 ECP      -0.087100
     19 CAF          9.7530     6.6380    -4.7900 c3         1 ECP      -0.070400
     20 CAA         11.1190     6.5090    -5.4620 c3         1 ECP      -0.081400
     21 CAB         11.9340     7.7680    -5.1870 c3         1 ECP      -0.067400
     22 CAC         11.2300     9.0140    -5.7210 c3         1 ECP      -0.051000
     23 CAO         11.9910    10.2310    -5.1450 c3         1 ECP      -0.087600
     24 CAP         11.3670     9.0720    -7.2430 c3         1 ECP      -0.087600
     25 CAD          9.7850     9.0980    -5.2690 c3         1 ECP      -0.041700
     26 CAG          9.0550    10.2650    -5.9320 c3         1 ECP      -0.073400
     27 CAH          7.7440    10.5240    -5.1770 c3         1 ECP      -0.039200
     28 CAI          6.9680     9.2310    -5.0940 c2         1 ECP      -0.130400
     29 CAX          5.7000     9.1920    -5.4340 c2         1 ECP      -0.237000
     30 H4           4.1310     2.6800    -4.3430 h1         1 ECP       0.008700
     31 H5           2.8420     3.8860    -4.2260 h1         1 ECP       0.008700
     32 H6           4.8000     3.8580    -4.3570 ha         1 ECP       0.344000
     33 H9           2.6000     5.8100    -4.7760 hc         1 ECP       0.035033
     34 H10          3.6680     5.0540    -5.9670 hc         1 ECP       0.035033
     35 H11          3.7090     6.8060    -5.7290 hc         1 ECP       0.035033
     36 H12          5.0640     7.7580    -3.9750 hc         1 ECP       0.053200
     37 H13          5.9550     6.7120    -2.8600 hc         1 ECP       0.053200
     38 H14          6.3880     6.8010    -5.8670 hc         1 ECP       0.048200
     39 H15          7.3270     5.8620    -4.6990 hc         1 ECP       0.048200
     40 H16          7.8880     8.0750    -3.5520 hc         1 ECP       0.064700
     41 H17          8.2930     6.4590    -6.9170 hc         1 ECP       0.036033
     42 H18          7.8210     8.1450    -7.1750 hc         1 ECP       0.036033
     43 H19          9.4880     7.6360    -7.4790 hc         1 ECP       0.036033
     44 H20          9.1920     5.7240    -4.9420 hc         1 ECP       0.056700
     45 H21          9.8910     6.8100    -3.7300 hc         1 ECP       0.056700
     46 H22         11.6390     5.6480    -5.0590 hc         1 ECP       0.039200
     47 H23         10.9870     6.3910    -6.5310 hc         1 ECP       0.039200
     48 H24         12.9000     7.6750    -5.6680 hc         1 ECP       0.033200
     49 H25         12.0730     7.8720    -4.1180 hc         1 ECP       0.033200
     50 H26         11.6700    11.1320    -5.6540 hc         1 ECP       0.029867
     51 H27         11.7800    10.3210    -4.0860 hc         1 ECP       0.029867
     52 H28         13.0550    10.0930    -5.2900 hc         1 ECP       0.029867
     53 H29         10.6820     9.8130    -7.6390 hc         1 ECP       0.029867
     54 H30         12.3830     9.3440    -7.5040 hc         1 ECP       0.029867
     55 H31         11.1330     8.1020    -7.6640 hc         1 ECP       0.029867
     56 H32          9.8170     9.3250    -4.2100 hc         1 ECP       0.044700
     57 H33          8.8350    10.0160    -6.9630 hc         1 ECP       0.035200
     58 H34          9.6760    11.1510    -5.8910 hc         1 ECP       0.035200
     59 H35          7.1590    11.2640    -5.7090 hc         1 ECP       0.037700
     60 H36          7.9660    10.8780    -4.1770 hc         1 ECP       0.037700
     61 H38          5.1500     8.2610    -5.3700 ha         1 ECP       0.128500
     62 H39          5.2040    10.0910    -5.7810 ha         1 ECP       0.128500
@<TRIPOS>BOND
     1    20    21 1
     2    20    19 1
     3    24    22 1
     4    21    22 1
     5    22    23 1
     6    22    25 1
     7    19    17 1
     8    18    17 1
     9    17    25 1
    10    17    16 1
    11    25    26 1
    12    26    27 1
    13    10    11 1
    14    10     9 1
    15    11    12 2
    16    15    16 1
    17    15    14 1
    18    16    28 1
    19     9     6 1
    20     4     2 1
    21    28    27 1
    22    28    29 2
    23    12    14 1
    24    12    13 1
    25     3     2 1
    26     2     5 1
    27     2     1 1
    28     5     6 1
    29     6     8 1
    30     6     7 1
    31    10    30 1
    32    10    31 1
    33    11    32 1
    34    13    33 1
    35    13    34 1
    36    13    35 1
    37    14    36 1
    38    14    37 1
    39    15    38 1
    40    15    39 1
    41    16    40 1
    42    18    41 1
    43    18    42 1
    44    18    43 1
    45    19    44 1
    46    19    45 1
    47    20    46 1
    48    20    47 1
    49    21    48 1
    50    21    49 1
    51    23    50 1
    52    23    51 1
    53    23    52 1
    54    24    53 1
    55    24    54 1
    56    24    55 1
    57    25    56 1
    58    26    57 1
    59    26    58 1
    60    27    59 1
    61    27    60 1
    62    29    61 1
    63    29    62 1
@<TRIPOS>SUBSTRUCTURE
     1 ECP         1 TEMP              0 ****  ****    0 ROOT
