@<TRIPOS>MOLECULE
ECQ
   29    29     1     0     0
SMALL
bcc


@<TRIPOS>ATOM
      1 OAD          0.0000     0.0000     0.0000 o          1 ECQ      -0.648500
      2 CD2          1.2120     0.0000     0.0000 c          1 ECQ       0.621500
      3 CG           2.0790     0.0000     1.2400 c3         1 ECQ      -0.165700
      4 CD1          3.4760     0.4190     0.7270 c3         1 ECQ      -0.037400
      5 CAE          3.4090    -0.0100    -0.7560 c3         1 ECQ       0.043000
      6 NAH          1.9830    -0.0050    -1.1010 ns         1 ECQ      -0.170900
      7 CB           1.5550     1.0150     2.2590 c3         1 ECQ      -0.021400
      8 CA           2.3740     0.9120     3.5470 c3         1 ECQ      -0.092500
      9 N            2.1460    -0.4000     4.1680 nz         1 ECQ       0.054400
     10 C            1.9420     2.0160     4.5150 c3         1 ECQ       0.190100
     11 O            2.1630     3.2920     3.9110 oh         1 ECQ      -0.560800
     12 CMK          2.7610     1.9120     5.8040 c3         1 ECQ      -0.052100
     13 HN1          2.9920    -0.9340     4.1400 hn         1 ECQ       0.231800
     14 HN2          1.4280    -0.8850     3.6680 hn         1 ECQ       0.231800
     15 HA           3.4270     1.0250     3.3170 hx         1 ECQ       0.104700
     16 HMK1         2.7550     2.8690     6.3140 hc         1 ECQ       0.027700
     17 HMK2         3.7810     1.6380     5.5630 hc         1 ECQ       0.027700
     18 HMK3         2.3270     1.1580     6.4490 hc         1 ECQ       0.027700
     19 HB1          0.5150     0.8060     2.4750 hc         1 ECQ       0.071700
     20 HB2          1.6470     2.0150     1.8520 hc         1 ECQ       0.071700
     21 HG           2.1190    -0.9930     1.6720 hc         1 ECQ       0.021700
     22 HAH          1.6290    -0.0060    -2.0380 hn         1 ECQ       0.214500
     23 HAE1         3.8180    -1.0060    -0.8750 h1         1 ECQ       0.031700
     24 HAE2         3.9450     0.6990    -1.3740 h1         1 ECQ       0.031700
     25 HD11         3.6120     1.4900     0.8120 hc         1 ECQ       0.033700
     26 HD12         4.2560    -0.1210     1.2500 hc         1 ECQ       0.033700
     27 H            0.8900     1.9030     4.7460 h1         1 ECQ       0.019700
     28 HO           1.6540     3.9450     4.3610 ho         1 ECQ       0.428000
     29 HN3          1.8570    -0.2730     5.1180 hn         1 ECQ       0.231800
@<TRIPOS>BOND
     1     1     2 2   
     2     2     3 1   
     3     2     6 1   
     4     3     4 1   
     5     3     7 1   
     6     3    21 1   
     7     4     5 1   
     8     4    25 1   
     9     4    26 1   
    10     5     6 1   
    11     5    23 1   
    12     5    24 1   
    13     6    22 1   
    14     7     8 1   
    15     7    19 1   
    16     7    20 1   
    17     8     9 1   
    18     8    10 1   
    19     8    15 1   
    20     9    13 1   
    21     9    14 1   
    22     9    29 1   
    23    10    11 1   
    24    10    12 1   
    25    10    27 1   
    26    11    28 1   
    27    12    16 1   
    28    12    17 1   
    29    12    18 1   
@<TRIPOS>SUBSTRUCTURE
     1 ECQ         1 TEMP              0 ****  ****    0 ROOT
