@<TRIPOS>MOLECULE
molecule
   45    48     1     0     0
SMALL
bcc


@<TRIPOS>ATOM
      1 C1           0.0000     0.0000     0.0000 ca         1 ECS      -0.149000
      2 C10          1.4060     0.0000     0.0000 ca         1 ECS      -0.059300
      3 C11          1.5280     0.5830    -2.5280 c3         1 ECS      -0.067400
      4 C12          2.3770     0.5100    -3.8130 c3         1 ECS      -0.063400
      5 C13          3.8060     1.0140    -3.5810 c3         1 ECS      -0.059000
      6 C14          4.4200     0.2010    -2.4230 c3         1 ECS      -0.065700
      7 C15          5.9040     0.5530    -2.4900 c3         1 ECS      -0.070400
      8 C16          6.1800     0.7180    -3.9950 c3         1 ECS      -0.108400
      9 C17          4.8080     0.6580    -4.6940 c3         1 ECS       0.153100
     10 C18          3.7730     2.5470    -3.3470 c3         1 ECS      -0.067100
     11 C2          -0.7260     0.0450     1.1930 ca         1 ECS       0.086100
     12 C3          -0.0610     0.0770     2.4110 ca         1 ECS       0.089100
     13 C4           1.3300     0.0540     2.4370 ca         1 ECS      -0.156000
     14 C5           2.0730     0.0000     1.2450 ca         1 ECS      -0.069300
     15 C6           3.5780    -0.0030     1.3540 c3         1 ECS      -0.031100
     16 C7           4.2960    -0.3580     0.0550 c3         1 ECS      -0.072400
     17 C8           3.6620     0.4010    -1.1120 c3         1 ECS      -0.048700
     18 C9           2.1960    -0.0960    -1.3030 c3         1 ECS      -0.013400
     19 O17          4.7440     1.5030    -5.8270 oh         1 ECS      -0.595800
     20 O3          -0.7550     0.1250     3.5810 oh         1 ECS      -0.512100
     21 O2          -2.0880     0.0520     1.1460 oh         1 ECS      -0.513100
     22 H1          -0.5310    -0.0240    -0.9440 ha         1 ECS       0.142000
     23 H9           2.2610    -1.1510    -1.5400 hc         1 ECS       0.052700
     24 H111         0.5780     0.0980    -2.7150 hc         1 ECS       0.043700
     25 H112         1.3500     1.6250    -2.2910 hc         1 ECS       0.043700
     26 H121         2.4180    -0.5190    -4.1490 hc         1 ECS       0.043700
     27 H122         1.9100     1.1180    -4.5780 hc         1 ECS       0.043700
     28 H14          4.3300    -0.8470    -2.6820 hc         1 ECS       0.044700
     29 H17          4.6260    -0.3620    -5.0080 h1         1 ECS       0.024700
     30 H181         4.7840     2.9180    -3.2340 hc         1 ECS       0.040033
     31 H182         3.2070     2.7630    -2.4490 hc         1 ECS       0.040033
     32 H183         3.3030     3.0310    -4.1950 hc         1 ECS       0.040033
     33 H151         6.5020    -0.2520    -2.0810 hc         1 ECS       0.046200
     34 H152         6.0960     1.4820    -1.9660 hc         1 ECS       0.046200
     35 H8           3.6460     1.4580    -0.8740 hc         1 ECS       0.059700
     36 H161         6.6510     1.6750    -4.1830 hc         1 ECS       0.051200
     37 H162         6.8110    -0.0900    -4.3470 hc         1 ECS       0.051200
     38 HA           4.9050     0.9970    -6.6060 ho         1 ECS       0.402000
     39 H2          -2.3900     0.9170     0.9230 ho         1 ECS       0.421000
     40 H4           1.8480     0.0790     3.3890 ha         1 ECS       0.141000
     41 H3          -0.7400    -0.7240     3.9910 ho         1 ECS       0.421000
     42 H6C1         3.9010     0.9830     1.6660 hc         1 ECS       0.050700
     43 H6C2         3.8650    -0.7210     2.1130 hc         1 ECS       0.050700
     44 H7C1         5.3410    -0.0850     0.1360 hc         1 ECS       0.046200
     45 H7C2         4.2100    -1.4240    -0.1220 hc         1 ECS       0.046200
@<TRIPOS>BOND
     1     1     2 ar
     2     1    11 ar
     3     1    22 1
     4     2    14 ar
     5     2    18 1
     6     3     4 1
     7     3    18 1
     8     3    24 1
     9     3    25 1
    10     4     5 1
    11     4    26 1
    12     4    27 1
    13     5     6 1
    14     5     9 1
    15     5    10 1
    16     6     7 1
    17     6    17 1
    18     6    28 1
    19     7     8 1
    20     7    33 1
    21     7    34 1
    22     8     9 1
    23     8    36 1
    24     8    37 1
    25     9    19 1
    26     9    29 1
    27    10    30 1
    28    10    31 1
    29    10    32 1
    30    11    12 ar
    31    11    21 1
    32    12    13 ar
    33    12    20 1
    34    13    14 ar
    35    13    40 1
    36    14    15 1
    37    15    16 1
    38    15    42 1
    39    15    43 1
    40    16    45 1
    41    16    17 1
    42    16    44 1
    43    17    18 1
    44    17    35 1
    45    18    23 1
    46    19    38 1
    47    20    41 1
    48    21    39 1
@<TRIPOS>SUBSTRUCTURE
     1 ECS         1 TEMP              0 ****  ****    0 ROOT
