@<TRIPOS>MOLECULE
ECS
   45    48     1     0     0
SMALL
bcc


@<TRIPOS>ATOM
      1 C1          0.0330   -0.0700   -0.1240 ca        1 ECS     -0.134000
      2 C10         1.4310   -0.1050   -0.0740 ca        1 ECS     -0.059300
      3 C11         1.5350    0.4140   -2.5430 c3        1 ECS     -0.072400
      4 C12         2.3730    0.4040   -3.8130 c3        1 ECS     -0.063400
      5 C13         3.7540    0.9830   -3.5630 c3        1 ECS     -0.044000
      6 C14         4.4050    0.1590   -2.4270 c3        1 ECS     -0.066700
      7 C15         5.8820    0.5230   -2.4940 c3        1 ECS     -0.068400
      8 C16         6.1560    0.7470   -3.9840 c3        1 ECS     -0.117400
      9 C17         4.7860    0.7660   -4.6970 c3        1 ECS      0.141100
     10 C18         3.6580    2.4700   -3.2650 c3        1 ECS     -0.077100
     11 C2         -0.7200   -0.0140    1.0540 ca        1 ECS      0.108100
     12 C3         -0.0630    0.0020    2.3010 ca        1 ECS      0.039100
     13 C4          1.3290   -0.0350    2.3540 ca        1 ECS     -0.173000
     14 C5          2.0800   -0.0880    1.1730 ca        1 ECS     -0.072300
     15 C6          3.5640   -0.0970    1.3130 c3        1 ECS     -0.031100
     16 C7          4.2980   -0.3950    0.0240 c3        1 ECS     -0.073400
     17 C8          3.6430    0.3360   -1.1330 c3        1 ECS     -0.047700
     18 C9          2.2240   -0.2230   -1.3400 c3        1 ECS     -0.011400
     19 O17         4.6880    1.8110   -5.6470 oh        1 ECS     -0.591800
     20 O3         -0.8700    0.0540    3.4210 oh        1 ECS     -0.518100
     21 O2         -2.0890    0.0200    0.9290 oh        1 ECS     -0.496100
     22 H1         -0.5090   -0.0860   -1.0810 ha        1 ECS      0.154000
     23 H9          2.3240   -1.3290   -1.5570 hc        1 ECS      0.056700
     24 H111        1.2470    1.4670   -2.2890 hc        1 ECS      0.045700
     25 H112        0.5880   -0.1490   -2.7620 hc        1 ECS      0.045700
     26 H121        1.8500    1.0000   -4.6050 hc        1 ECS      0.045700
     27 H122        2.4710   -0.6490   -4.1890 hc        1 ECS      0.045700
     28 H14         4.3270   -0.9330   -2.7120 hc        1 ECS      0.045700
     29 H17         4.5950   -0.2170   -5.2080 h1        1 ECS      0.034700
     30 H181        2.9660    2.6750   -2.4150 hc        1 ECS      0.041033
     31 H182        4.6670    2.8770   -3.0140 hc        1 ECS      0.041033
     32 H183        3.2780    3.0050   -4.1700 hc        1 ECS      0.041033
     33 H151        6.0920    1.4510   -1.9070 hc        1 ECS      0.045200
     34 H152        6.5200   -0.2950   -2.0810 hc        1 ECS      0.045200
     35 H8          3.5800    1.4290   -0.8740 hc        1 ECS      0.063700
     36 H161        6.6840    1.7190   -4.1460 hc        1 ECS      0.047200
     37 H162        6.7950   -0.0700   -4.3980 hc        1 ECS      0.047200
     38 HA          5.4000    1.6680   -6.2830 ho        1 ECS      0.398000
     39 H2         -2.4670    0.0590    1.8210 ho        1 ECS      0.436000
     40 H4          1.8410   -0.0220    3.3280 ha        1 ECS      0.133000
     41 H3         -0.2940    0.0660    4.1980 ho        1 ECS      0.428000
     42 H6C1        3.8610   -0.8510    2.0910 hc        1 ECS      0.048700
     43 H6C2        3.8830    0.9130    1.6940 hc        1 ECS      0.048700
     44 H7C1        4.2950   -1.4990   -0.1740 hc        1 ECS      0.044700
     45 H7C2        5.3680   -0.0740    0.1170 hc        1 ECS      0.044700
@<TRIPOS>BOND
     1    1    2 ar  
     2    1   11 ar  
     3    1   22 1   
     4    2   14 ar  
     5    2   18 1   
     6    3    4 1   
     7    3   18 1   
     8    3   24 1   
     9    3   25 1   
    10    4    5 1   
    11    4   26 1   
    12    4   27 1   
    13    5    6 1   
    14    5    9 1   
    15    5   10 1   
    16    6    7 1   
    17    6   17 1   
    18    6   28 1   
    19    7    8 1   
    20    7   33 1   
    21    7   34 1   
    22    8    9 1   
    23    8   36 1   
    24    8   37 1   
    25    9   19 1   
    26    9   29 1   
    27   10   30 1   
    28   10   31 1   
    29   10   32 1   
    30   11   12 ar  
    31   11   21 1   
    32   12   13 ar  
    33   12   20 1   
    34   13   14 ar  
    35   13   40 1   
    36   14   15 1   
    37   15   16 1   
    38   15   42 1   
    39   15   43 1   
    40   16   17 1   
    41   16   44 1   
    42   16   45 1   
    43   17   18 1   
    44   17   35 1   
    45   18   23 1   
    46   19   38 1   
    47   20   41 1   
    48   21   39 1   
@<TRIPOS>SUBSTRUCTURE
     1 ECS         1 TEMP              0 ****  ****    0 ROOT
