@<TRIPOS>MOLECULE
ECV
   47    50     1     0     0
SMALL
bcc


@<TRIPOS>ATOM
      1 C1           0.0000     0.0000     0.0000 c3         1 ECV       0.084300
      2 C3           2.1380     0.0000     1.1680 c          1 ECV       0.555100
      3 O4           1.5320    -0.0010     2.2190 o          1 ECV      -0.610100
      4 C7           5.6320    -1.4800     1.5580 c3         1 ECV       0.212400
      5 C9           4.9170    -1.4970     3.8360 ca         1 ECV       0.133100
      6 C10          5.2450    -1.3840     5.1780 ca         1 ECV      -0.155000
      7 C11          4.3960    -1.9000     6.1430 ca         1 ECV       0.117900
      8 C13          3.2200    -2.5290     5.7740 ca         1 ECV      -0.141000
      9 C14          2.8870    -2.6450     4.4360 ca         1 ECV      -0.083000
     10 C15          3.7300    -2.1350     3.4660 ca         1 ECV      -0.153400
     11 C19          2.2270    -3.3520     0.2570 ca         1 ECV      -0.141600
     12 C20          2.5560    -2.3700    -0.6810 ca         1 ECV      -0.168000
     13 C21          2.3670    -2.6070    -2.0260 ca         1 ECV      -0.108000
     14 C22          1.8490    -3.8210    -2.4510 ca         1 ECV       0.127100
     15 C24          1.8370    -5.4140    -4.2120 c3         1 ECV       0.149400
     16 N2           1.4640     0.0000     0.0000 ns         1 ECV      -0.212900
     17 C5           3.6450     0.0000     1.1680 c3         1 ECV      -0.119400
     18 C6           4.1550    -1.4420     1.1400 c3         1 ECV      -0.105300
     19 O8           5.7500    -0.9820     2.8930 os         1 ECV      -0.300900
     20 N16          3.4000    -2.2580     2.1050 n          1 ECV       0.053000
     21 C17          2.4240    -3.0950     1.6960 c          1 ECV       0.605700
     22 O18          1.7070    -3.6380     2.5160 o          1 ECV      -0.622100
     23 O23          1.6600    -4.0640    -3.7740 os         1 ECV      -0.301900
     24 C25          1.1140    -6.3490    -3.2760 c          1 ECV       0.563500
     25 O26          0.6440    -7.3850    -3.6950 o          1 ECV      -0.644500
     26 N27          0.9940    -6.0270    -1.9690 ns         1 ECV      -0.018100
     27 C28          1.5180    -4.8070    -1.5190 ca         1 ECV      -0.155400
     28 C29          1.7050    -4.5760    -0.1700 ca         1 ECV      -0.039000
     29 H1          -0.3610     0.9200     0.4430 h1         1 ECV       0.014367
     30 H2          -0.3610    -0.8440     0.5760 h1         1 ECV       0.014367
     31 H3          -0.3610    -0.0770    -1.0180 h1         1 ECV       0.014367
     32 H4           5.9770    -2.5060     1.5340 h1         1 ECV       0.026200
     33 H5           6.2010    -0.8400     0.8930 h1         1 ECV       0.026200
     34 H6           6.1640    -0.8920     5.4720 ha         1 ECV       0.130000
     35 H7           2.5600    -2.9310     6.5330 ha         1 ECV       0.122000
     36 H8           1.9670    -3.1380     4.1490 ha         1 ECV       0.188000
     37 H9           2.9210    -1.4050    -0.3480 ha         1 ECV       0.163000
     38 H10          2.6230    -1.8440    -2.7510 ha         1 ECV       0.118000
     39 H11          2.8930    -5.6550    -4.2160 h1         1 ECV       0.041700
     40 H12          1.4330    -5.5230    -5.2120 h1         1 ECV       0.041700
     41 H13          1.9630     0.0740    -0.8640 hn         1 ECV       0.176500
     42 H14          4.0060     0.5280     0.2930 hc         1 ECV       0.051700
     43 H15          4.0060     0.4940     2.0620 hc         1 ECV       0.051700
     44 H16          4.0460    -1.8570     0.1460 h1         1 ECV       0.104700
     45 H17          0.3930    -6.5630    -1.3750 hn         1 ECV       0.190500
     46 H18          1.4490    -5.3410     0.5530 ha         1 ECV       0.134000
     47 F12          4.7180    -1.7880     7.4510 f          1 ECV      -0.129900
@<TRIPOS>BOND
     1     1    16 1   
     2     1    29 1   
     3     1    30 1   
     4     1    31 1   
     5     2     3 2   
     6     2    16 1   
     7     2    17 1   
     8     4    18 1   
     9     4    19 1   
    10     4    32 1   
    11     4    33 1   
    12     5     6 ar  
    13     5    10 ar  
    14     5    19 1   
    15     6     7 ar  
    16     6    34 1   
    17     7     8 ar  
    18     7    47 1   
    19     8     9 ar  
    20     8    35 1   
    21     9    10 ar  
    22     9    36 1   
    23    10    20 1   
    24    11    12 ar  
    25    11    21 1   
    26    11    28 ar  
    27    12    13 ar  
    28    12    37 1   
    29    13    14 ar  
    30    13    38 1   
    31    14    23 1   
    32    14    27 ar  
    33    15    23 1   
    34    15    24 1   
    35    15    39 1   
    36    15    40 1   
    37    16    41 1   
    38    17    18 1   
    39    17    42 1   
    40    17    43 1   
    41    18    20 1   
    42    18    44 1   
    43    20    21 1   
    44    21    22 2   
    45    24    25 2   
    46    24    26 1   
    47    26    27 1   
    48    26    45 1   
    49    27    28 ar  
    50    28    46 1   
@<TRIPOS>SUBSTRUCTURE
     1 ECV         1 TEMP              0 ****  ****    0 ROOT
