@<TRIPOS>MOLECULE
molecule
   47    50     1     0     0
SMALL
bcc


@<TRIPOS>ATOM
      1 C1           0.0000     0.0000     0.0000 c3         1 ECV       0.100300
      2 C3           2.1380     0.0000     1.1680 c          1 ECV       0.646100
      3 O4           1.5320    -0.0010     2.2190 o          1 ECV      -0.572100
      4 C7           5.6320    -1.4800     1.5580 c3         1 ECV       0.135400
      5 C9           4.9170    -1.4970     3.8360 ca         1 ECV       0.121100
      6 C10          5.2450    -1.3840     5.1780 ca         1 ECV      -0.180000
      7 C11          4.3960    -1.9000     6.1430 ca         1 ECV       0.141900
      8 C13          3.2200    -2.5290     5.7740 ca         1 ECV      -0.177000
      9 C14          2.8870    -2.6450     4.4360 ca         1 ECV      -0.093000
     10 C15          3.7300    -2.1350     3.4660 ca         1 ECV      -0.013400
     11 C19          2.2270    -3.3520     0.2570 ca         1 ECV      -0.137600
     12 C20          2.5560    -2.3700    -0.6810 ca         1 ECV      -0.140000
     13 C21          2.3670    -2.6070    -2.0260 ca         1 ECV      -0.141000
     14 C22          1.8490    -3.8210    -2.4510 ca         1 ECV       0.115100
     15 C24          1.8370    -5.4140    -4.2120 c3         1 ECV       0.072400
     16 N2           1.4640     0.0000     0.0000 ns         1 ECV      -0.596900
     17 C5           3.6450     0.0000     1.1680 c3         1 ECV      -0.177400
     18 C6           4.1550    -1.4420     1.1400 c3         1 ECV       0.032700
     19 O8           5.7500    -0.9820     2.8930 os         1 ECV      -0.325900
     20 N16          3.4000    -2.2580     2.1050 n          1 ECV      -0.360000
     21 C17          2.4240    -3.0950     1.6960 c          1 ECV       0.691700
     22 O18          1.7070    -3.6380     2.5160 o          1 ECV      -0.583100
     23 O23          1.6600    -4.0640    -3.7740 os         1 ECV      -0.320900
     24 C25          1.1140    -6.3490    -3.2760 c          1 ECV       0.667500
     25 O26          0.6440    -7.3850    -3.6950 o          1 ECV      -0.605500
     26 N27          0.9940    -6.0270    -1.9690 ns         1 ECV      -0.462100
     27 C28          1.5180    -4.8070    -1.5190 ca         1 ECV      -0.007400
     28 C29          1.7050    -4.5760    -0.1700 ca         1 ECV      -0.078000
     29 H1          -0.3610     0.9200     0.4430 h1         1 ECV       0.046033
     30 H2          -0.3610    -0.8440     0.5760 h1         1 ECV       0.046033
     31 H3          -0.3610    -0.0770    -1.0180 h1         1 ECV       0.046033
     32 H4           5.9770    -2.5060     1.5340 h1         1 ECV       0.069700
     33 H5           6.2010    -0.8400     0.8930 h1         1 ECV       0.069700
     34 H6           6.1640    -0.8920     5.4720 ha         1 ECV       0.158000
     35 H7           2.5600    -2.9310     6.5330 ha         1 ECV       0.151000
     36 H8           1.9670    -3.1380     4.1490 ha         1 ECV       0.206000
     37 H9           2.9210    -1.4050    -0.3480 ha         1 ECV       0.168000
     38 H10          2.6230    -1.8440    -2.7510 ha         1 ECV       0.148000
     39 H11          2.8930    -5.6550    -4.2160 h1         1 ECV       0.091200
     40 H12          1.4330    -5.5230    -5.2120 h1         1 ECV       0.091200
     41 H13          1.9630     0.0740    -0.8640 hn         1 ECV       0.309500
     42 H14          4.0060     0.5280     0.2930 hc         1 ECV       0.082200
     43 H15          4.0060     0.4940     2.0620 hc         1 ECV       0.082200
     44 H16          4.0460    -1.8570     0.1460 h1         1 ECV       0.109700
     45 H17          0.3930    -6.5630    -1.3750 hn         1 ECV       0.348500
     46 H18          1.4490    -5.3410     0.5530 ha         1 ECV       0.165000
     47 F12          4.7180    -1.7880     7.4510 f          1 ECV      -0.140900
@<TRIPOS>BOND
     1     3     2 2
     2     2    17 1
     3     2    16 1
     4     1    16 1
     5    17    18 1
     6    18     4 1
     7    18    20 1
     8    19     4 1
     9    19     5 1
    10     5     6 ar
    11     5    10 ar
    12    20    10 1
    13    20    21 1
    14     6     7 ar
    15    10     9 ar
    16    22    21 2
    17     7    47 1
    18     7     8 ar
    19     9     8 ar
    20    21    11 1
    21    11    28 ar
    22    11    12 ar
    23    28    27 ar
    24    12    13 ar
    25    27    26 1
    26    27    14 ar
    27    13    14 ar
    28    26    24 1
    29    14    23 1
    30    24    25 2
    31    24    15 1
    32    23    15 1
    33     1    29 1
    34     1    30 1
    35     1    31 1
    36     4    32 1
    37     4    33 1
    38     6    34 1
    39     8    35 1
    40     9    36 1
    41    12    37 1
    42    13    38 1
    43    15    39 1
    44    15    40 1
    45    16    41 1
    46    17    42 1
    47    17    43 1
    48    18    44 1
    49    26    45 1
    50    28    46 1
@<TRIPOS>SUBSTRUCTURE
     1 ECV         1 TEMP              0 ****  ****    0 ROOT
