@<TRIPOS>MOLECULE
molecule
   84    89     1     0     0
SMALL
bcc


@<TRIPOS>ATOM
      1 CAA          0.0000     0.0000     0.0000 c3         1 ECY      -0.047800
      2 CAB          4.0470    -0.0300    -2.6510 c3         1 ECY      -0.047800
      3 CAC          9.0380    -5.7700     7.6750 c3         1 ECY      -0.048400
      4 CAD         13.3510    -3.2530     7.8650 c3         1 ECY      -0.034800
      5 CAE         11.6570    -4.2740    10.1860 c3         1 ECY       0.093600
      6 CAJ         11.6460     3.2390    11.6010 ca         1 ECY      -0.187000
      7 CAK          8.7590    -3.5990     4.0600 ca         1 ECY      -0.187000
      8 CAL         11.0420     3.2390    10.3590 ca         1 ECY      -0.223000
      9 CAM         10.8720     3.3330    12.7510 ca         1 ECY      -0.100000
     10 CAN          9.9510    -3.8250     4.7490 ca         1 ECY      -0.081000
     11 CAO          8.0790    -2.3970     4.2230 ca         1 ECY      -0.061000
     12 CAP          2.1970     0.0000     1.1970 ca         1 ECY      -0.159000
     13 CAQ          4.2760     0.0040    -0.0070 ca         1 ECY      -0.159000
     14 CAR          8.8860     3.4270    11.4060 ca         1 ECY      -0.107000
     15 CAS          5.9770     0.8910     3.8600 c3         1 ECY      -0.106400
     16 CAT         12.2120     1.3570     7.4950 c3         1 ECY      -0.118400
     17 CAU          5.1590     1.0830     2.5440 c3         1 ECY       0.121400
     18 CAV          7.1480     1.9290     3.9030 c3         1 ECY       0.087800
     19 CAW         11.0710     1.8730     8.1610 c3         1 ECY       0.029000
     20 CAX         11.8340    -0.1000     6.4630 c3         1 ECY       0.079300
     21 CAY          9.5910     0.4760     8.9690 c3         1 ECY      -0.005700
     22 CBB          9.3580     3.6640    14.1610 c          1 ECY       0.915200
     23 CBC          9.6560     1.4220     6.7930 c          1 ECY       0.705700
     24 CBD          1.5070     0.0000     0.0000 ca         1 ECY      -0.052800
     25 CBE          3.5820    -0.0020    -1.2010 ca         1 ECY      -0.052800
     26 CBF          9.9840    -4.6370     7.3060 cc         1 ECY       0.326600
     27 CBG          9.6580     3.3330    10.2600 ca         1 ECY      -0.163300
     28 CBH          3.5840     0.0050     1.1960 ca         1 ECY       0.147100
     29 CBI         11.8830    -3.5470     7.6100 cd         1 ECY       0.010400
     30 CBJ          9.4940     3.4270    12.6520 ca         1 ECY      -0.123600
     31 CBK          2.1980    -0.0010    -1.1980 ca         1 ECY       0.000400
     32 CBL         10.4580    -2.8520     5.5970 ca         1 ECY      -0.063000
     33 CBM          8.1590    -0.1190     5.4580 cc         1 ECY      -0.097400
     34 CBN         10.9140    -3.8550     6.6900 cc         1 ECY      -0.171300
     35 CBO          9.0880     0.4060     6.3590 cd         1 ECY      -0.187300
     36 CBP          8.5900    -1.4150     5.0770 ca         1 ECY      -0.116800
     37 CBQ          9.7740    -1.6400     5.7620 ca         1 ECY      -0.020200
     38 NAZ         10.3640    -4.8110     8.5680 nd         1 ECY      -0.656800
     39 NBR         10.1920     1.3280     7.9470 n          1 ECY      -0.223800
     40 NBS         11.5570    -4.1250     8.7560 na         1 ECY       0.031400
     41 NBT         10.0790    -0.5320     6.5420 na         1 ECY      -0.115400
     42 OAF          8.2480     3.9910    14.6470 o          1 ECY      -0.815800
     43 OAH         10.3720     3.5610    14.9120 o          1 ECY      -0.815800
     44 OBA          4.2620    -0.0150     2.3740 os         1 ECY      -0.327900
     45 ClAI         1.3060     0.8150    -2.5150 cl         1 ECY      -0.146400
     46 H1          -0.3610     1.0140    -0.1260 hc         1 ECY       0.050200
     47 H2          -0.3610    -0.3980     0.9410 hc         1 ECY       0.050200
     48 H3          -0.3610    -0.6160    -0.8150 hc         1 ECY       0.050200
     49 H4           3.4690    -0.7630    -3.2010 hc         1 ECY       0.050200
     50 H5           3.9050     0.9480    -3.0950 hc         1 ECY       0.050200
     51 H6           5.0960    -0.2950    -2.6890 hc         1 ECY       0.050200
     52 H7           9.6130    -6.6510     7.9340 hc         1 ECY       0.042367
     53 H8           8.4320    -5.4730     8.5220 hc         1 ECY       0.042367
     54 H9           8.3960    -5.9940     6.8310 hc         1 ECY       0.042367
     55 H10         13.4390    -2.4330     8.5680 hc         1 ECY       0.051367
     56 H11         13.8310    -4.1330     8.2750 hc         1 ECY       0.051367
     57 H12         13.8320    -2.9810     6.9330 hc         1 ECY       0.051367
     58 H13         10.7180    -3.9880    10.6450 h1         1 ECY       0.051033
     59 H14         11.8770    -5.3070    10.4270 h1         1 ECY       0.051033
     60 H15         12.4500    -3.6390    10.5600 h1         1 ECY       0.051033
     61 H16         12.7150     3.3970    11.6840 ha         1 ECY       0.101000
     62 H17          8.3830    -4.3440     3.3700 ha         1 ECY       0.122000
     63 H18         11.6500     3.2480     9.4620 ha         1 ECY       0.120000
     64 H19         11.6250     3.8230    13.3570 ha         1 ECY       0.161000
     65 H20         10.4800    -4.7620     4.6220 ha         1 ECY       0.136000
     66 H21          7.1500    -2.2250     3.6940 ha         1 ECY       0.129000
     67 H22          1.6560     0.0550     2.1340 ha         1 ECY       0.151000
     68 H23          5.3440    -0.0260    -0.1820 ha         1 ECY       0.151000
     69 H24          7.8050     3.3620    11.4330 ha         1 ECY       0.135000
     70 H25          6.3830    -0.1130     3.8890 hc         1 ECY       0.082200
     71 H26          5.3280     1.0430     4.7140 hc         1 ECY       0.082200
     72 H27         12.8900     0.9470     8.2340 hc         1 ECY       0.049700
     73 H28         12.7060     2.1670     6.9730 hc         1 ECY       0.049700
     74 H29          4.5930     2.0050     2.6020 h1         1 ECY       0.030200
     75 H30          5.8370     1.1290     1.7010 h1         1 ECY       0.030200
     76 H31          7.4800     2.1410     2.8940 hc         1 ECY       0.062200
     77 H32          6.8030     2.8430     4.3700 hc         1 ECY       0.062200
     78 H33         10.8430     2.8500     7.7520 h1         1 ECY       0.106700
     79 H34         11.2990     1.9740     9.2150 h1         1 ECY       0.106700
     80 H35         12.6190    -0.8360     6.5900 h1         1 ECY       0.068200
     81 H36         11.7930     0.2050     5.4240 h1         1 ECY       0.068200
     82 H37          8.5950     0.0760     8.8240 h1         1 ECY       0.086700
     83 H38         10.3330    -0.2080     9.3640 h1         1 ECY       0.086700
     84 OAG         10.1560     2.1980     6.0510 o          1 ECY      -0.634500
@<TRIPOS>BOND
     1     2    25 1
     2    25    13 ar
     3    25    31 ar
     4    13    28 ar
     5    45    31 1
     6    17    15 1
     7    17    44 1
     8    31    24 ar
     9     6     9 ar
    10     6     8 ar
    11     9    30 ar
    12    43    22 1
    13    18    15 1
    14    18    33 1
    15    28    44 1
    16    28    12 ar
    17     8    27 ar
    18    30    22 1
    19    30    14 ar
    20    24    12 ar
    21    24     1 1
    22    22    42 1
    23    27    14 ar
    24    27    21 1
    25    84    23 2
    26    33    35 2
    27    33    36 1
    28    23    39 1
    29    23    35 1
    30    21    39 1
    31    11    36 ar
    32    11     7 ar
    33    39    19 1
    34    35    41 1
    35    36    37 ar
    36     7    10 ar
    37    19    16 1
    38    41    37 1
    39    41    20 1
    40    37    32 ar
    41    10    32 ar
    42    16    20 1
    43    32    34 1
    44     3    26 1
    45    34    26 1
    46    34    29 2
    47    26    38 2
    48    29     4 1
    49    29    40 1
    50    38    40 1
    51    40     5 1
    52     1    46 1
    53     1    47 1
    54     1    48 1
    55     2    49 1
    56     2    50 1
    57     2    51 1
    58     3    52 1
    59     3    53 1
    60     3    54 1
    61     4    55 1
    62     4    56 1
    63     4    57 1
    64     5    58 1
    65     5    59 1
    66     5    60 1
    67     6    61 1
    68     7    62 1
    69     8    63 1
    70     9    64 1
    71    10    65 1
    72    11    66 1
    73    12    67 1
    74    13    68 1
    75    14    69 1
    76    15    70 1
    77    15    71 1
    78    16    72 1
    79    16    73 1
    80    17    74 1
    81    17    75 1
    82    18    76 1
    83    18    77 1
    84    19    78 1
    85    19    79 1
    86    20    80 1
    87    20    81 1
    88    21    82 1
    89    21    83 1
@<TRIPOS>SUBSTRUCTURE
     1 ECY         1 TEMP              0 ****  ****    0 ROOT
