@<TRIPOS>MOLECULE
ECZ
   34    36     1     0     0
SMALL
bcc


@<TRIPOS>ATOM
      1 CAA          0.0000     0.0000     0.0000 c3         1 ECZ       0.237700
      2 OAB          1.4300     0.0000     0.0000 os         1 ECZ      -0.282900
      3 CAC          2.0470     0.0000     1.2100 ca         1 ECZ       0.165100
      4 CAH          3.4480    -0.0010     1.2880 ca         1 ECZ       0.109400
      5 NAI          4.2150    -0.0000     0.1800 nc         1 ECZ      -0.493100
      6 CAD          1.2990     0.0050     2.3710 ca         1 ECZ      -0.188000
      7 CAE          1.9180     0.0050     3.6140 ca         1 ECZ      -0.072000
      8 CAF          3.2920    -0.0000     3.7150 ca         1 ECZ      -0.064000
      9 CAG          4.0680    -0.0010     2.5580 ca         1 ECZ      -0.171600
     10 CAL          5.5380    -0.0000     2.6110 c          1 ECZ       0.617100
     11 OAM          6.1310    -0.0010     3.6740 o          1 ECZ      -0.662500
     12 NAK          6.2060    -0.0000     1.4340 ns         1 ECZ      -0.015400
     13 CAJ          5.5210    -0.0000     0.2490 cd         1 ECZ       0.323500
     14 CAN          6.2930     0.0000    -1.0120 ca         1 ECZ      -0.112900
     15 CAO          5.6300    -0.0000    -2.2400 ca         1 ECZ      -0.082500
     16 CAP          6.3560     0.0000    -3.4130 ca         1 ECZ      -0.043000
     17 CAQ          7.7390     0.0000    -3.3720 ca         1 ECZ      -0.199300
     18 CAT          8.5260     0.0010    -4.6580 c3         1 ECZ       0.639200
     19 FAV          8.7690     1.3200    -5.0550 f          1 ECZ      -0.206633
     20 FAW          9.7440    -0.6580    -4.4590 f          1 ECZ      -0.206633
     21 FAU          7.7960    -0.6580    -5.6530 f          1 ECZ      -0.206633
     22 CAR          8.4030     0.0010    -2.1580 ca         1 ECZ      -0.043000
     23 CAS          7.6880     0.0060    -0.9790 ca         1 ECZ      -0.082500
     24 HAA1        -0.3610     0.8860     0.5080 h1         1 ECZ      -0.000633
     25 HAA2        -0.3610    -0.8830     0.5130 h1         1 ECZ      -0.000633
     26 HAA3        -0.3610    -0.0030    -1.0210 h1         1 ECZ      -0.000633
     27 HAD          0.2170     0.0090     2.3120 ha         1 ECZ       0.123000
     28 HAE          1.3140     0.0090     4.5140 ha         1 ECZ       0.106000
     29 HAF          3.7660     0.0000     4.6890 ha         1 ECZ       0.129000
     30 HAK          7.2070    -0.0000     1.4300 hn         1 ECZ       0.189500
     31 HAO          4.5470    -0.0000    -2.2720 ha         1 ECZ       0.125500
     32 HAS          8.2090     0.0070    -0.0290 ha         1 ECZ       0.125500
     33 HAP          5.8430     0.0000    -4.3670 ha         1 ECZ       0.121500
     34 HAR          9.4860     0.0030    -2.1340 ha         1 ECZ       0.121500
@<TRIPOS>BOND
     1     1     2 1   
     2     1    24 1   
     3     1    25 1   
     4     1    26 1   
     5     2     3 1   
     6     3     4 ar  
     7     3     6 ar  
     8     4     5 1   
     9     4     9 ar  
    10     5    13 2   
    11     6     7 ar  
    12     6    27 1   
    13     7     8 ar  
    14     7    28 1   
    15     8     9 ar  
    16     8    29 1   
    17     9    10 1   
    18    10    11 2   
    19    10    12 1   
    20    12    13 1   
    21    12    30 1   
    22    13    14 1   
    23    14    15 ar  
    24    14    23 ar  
    25    15    16 ar  
    26    15    31 1   
    27    16    17 ar  
    28    16    33 1   
    29    17    18 1   
    30    17    22 ar  
    31    18    19 1   
    32    18    20 1   
    33    18    21 1   
    34    22    23 ar  
    35    22    34 1   
    36    23    32 1   
@<TRIPOS>SUBSTRUCTURE
     1 ECZ         1 TEMP              0 ****  ****    0 ROOT
