@<TRIPOS>MOLECULE
ED1
  100   104     1     0     0
SMALL
bcc


@<TRIPOS>ATOM
      1 NAE         -1.2680     0.0060    -2.2330 n1         1 ED1      -0.409800
      2 CAK         -0.7160     0.0020    -1.2400 cg         1 ED1       0.250800
      3 CBN          0.0000     0.0000     0.0000 ca         1 ED1      -0.055000
      4 CAQ          1.3980     0.0000     0.0000 ca         1 ED1      -0.010000
      5 CAU          2.0840     0.0000     1.1930 ca         1 ED1      -0.223000
      6 CAR         -0.6960     0.0050     1.2120 ca         1 ED1      -0.010000
      7 CAV         -0.0040     0.0030     2.4020 ca         1 ED1      -0.223000
      8 CBQ          1.3880    -0.0010     2.3980 ca         1 ED1       0.103600
      9 NBW          2.0850    -0.0020     3.6030 nh         1 ED1      -0.353000
     10 CBH          1.3560    -0.0730     4.8710 c3         1 ED1       0.271100
     11 CBR          1.2940    -1.5060     5.3360 cc         1 ED1      -0.466900
     12 NBY          0.3870    -2.4530     4.9410 na         1 ED1       0.302100
     13 CAA         -0.7080    -2.2640     3.9860 c3         1 ED1      -0.041400
     14 CAX          0.6920    -3.5940     5.5960 cc         1 ED1       0.222400
     15 NBJ          1.7290    -3.3750     6.3570 nd         1 ED1      -0.617000
     16 CAW          2.1240    -2.1010     6.2130 cd         1 ED1       0.350200
     17 CBF          3.5480     0.0690     3.6030 c3         1 ED1       0.124800
     18 CBG          3.9880     1.5310     3.7080 c3         1 ED1       0.174800
     19 NBX          5.4460     1.6120     3.5860 n3         1 ED1      -0.531500
     20 CBI          6.0780     1.5030     2.2680 c3         1 ED1       0.240800
     21 CBU          6.1350     2.8840     1.6130 c3         1 ED1      -0.082700
     22 CBB          4.7140     3.3630     1.3070 c3         1 ED1      -0.048900
     23 CBD          4.7730     4.7610     0.6840 c3         1 ED1       0.056000
     24 NBV          5.6600     4.7190    -0.4860 n          1 ED1      -0.137800
     25 CBM          5.2340     5.1580    -1.6870 c          1 ED1       0.702100
     26 OBK          6.0590     5.1150    -2.7510 os         1 ED1      -0.419900
     27 CBZ          5.5330     5.6030    -4.0120 c3         1 ED1       0.193800
     28 CAB          4.3080     4.7780    -4.4080 c3         1 ED1      -0.028767
     29 CAD          5.1320     7.0720    -3.8630 c3         1 ED1      -0.028767
     30 CAC          6.6050     5.4750    -5.0960 c3         1 ED1      -0.028767
     31 OAG          4.1060     5.5930    -1.8100 o          1 ED1      -0.667000
     32 CBE          7.0220     4.1920    -0.3220 c3         1 ED1       0.056000
     33 CBC          6.9380     2.8000     0.3130 c3         1 ED1      -0.048900
     34 SCA          6.3790     1.8270     4.9370 sy         1 ED1       1.053200
     35 OAI          7.5500     2.5110     4.5110 o          1 ED1      -0.575800
     36 OAH          5.5130     2.3240     5.9470 o          1 ED1      -0.575800
     37 CBT          6.9020     0.2320     5.4690 ca         1 ED1      -0.145500
     38 CAT          6.7960    -0.8500     4.6200 ca         1 ED1      -0.044000
     39 CAM          7.2050    -2.1040     5.0360 ca         1 ED1      -0.139000
     40 CAL          7.7230    -2.2800     6.3060 ca         1 ED1      -0.050000
     41 CAS          7.8340    -1.2060     7.1650 ca         1 ED1      -0.112000
     42 CBS          7.4280     0.0600     6.7480 cp         1 ED1       0.120000
     43 CBP          7.5500     1.2200     7.6650 cp         1 ED1      -0.103000
     44 CAY          6.8830     1.2190     8.8880 ca         1 ED1      -0.065000
     45 CAP          8.3380     2.3130     7.3080 ca         1 ED1      -0.127000
     46 CAN          8.4480     3.3900     8.1640 ca         1 ED1      -0.101000
     47 CAO          7.7790     3.3860     9.3750 ca         1 ED1      -0.085000
     48 CBO          7.0000     2.3010     9.7360 ca         1 ED1      -0.054300
     49 CBA          6.2780     2.3010    11.0590 c3         1 ED1       0.029900
     50 CAZ          7.2220     1.7970    12.1550 c3         1 ED1      -0.130400
     51 CBL          6.5380     1.9040    13.4940 c          1 ED1       0.979600
     52 OAF          5.4510     2.4250    13.5780 o          1 ED1      -0.902800
     53 OAJ          7.1370     1.4210    14.5930 o          1 ED1      -0.902800
     54 HAQ          1.9400    -0.0730    -0.9360 ha         1 ED1       0.107500
     55 HAU          3.1660    -0.0600     1.1950 ha         1 ED1       0.130000
     56 HAR         -1.7770     0.0760     1.2150 ha         1 ED1       0.107500
     57 HAV         -0.5410     0.0860     3.3390 ha         1 ED1       0.130000
     58 HBH          1.8660     0.5260     5.6150 h1         1 ED1       0.039700
     59 HBHA         0.3500     0.3050     4.7310 h1         1 ED1       0.039700
     60 HAA         -0.3050    -2.2060     2.9820 h1         1 ED1       0.032033
     61 HAAA        -1.3930    -3.1000     4.0530 h1         1 ED1       0.032033
     62 HAAB        -1.2350    -1.3460     4.2180 h1         1 ED1       0.032033
     63 HAX          0.1620    -4.5340     5.5060 h5         1 ED1       0.021100
     64 HAW          2.9580    -1.6320     6.7200 h4         1 ED1       0.013100
     65 HBF          3.9300    -0.3580     2.6830 h1         1 ED1       0.039200
     66 HBFA         3.9370    -0.4870     4.4470 h1         1 ED1       0.039200
     67 HBG          3.6830     1.9310     4.6670 h1         1 ED1       0.050700
     68 HBGA         3.5270     2.1050     2.9130 h1         1 ED1       0.050700
     69 HBI          7.0830     1.1150     2.3810 h1         1 ED1       0.019200
     70 HBIA         5.4990     0.8320     1.6450 h1         1 ED1       0.019200
     71 HBU          6.6130     3.5870     2.2850 hc         1 ED1       0.063700
     72 HBB          4.1410     3.4010     2.2260 hc         1 ED1       0.027450
     73 HBBA         4.2450     2.6770     0.6110 hc         1 ED1       0.027450
     74 HBD          5.1630     5.4650     1.4100 h1         1 ED1       0.034200
     75 HBDA         3.7790     5.0620     0.3750 h1         1 ED1       0.034200
     76 HAB          3.5150     4.9390    -3.6880 hc         1 ED1       0.018144
     77 HABA         3.9690     5.0820    -5.3910 hc         1 ED1       0.018144
     78 HABB         4.5710     3.7270    -4.4270 hc         1 ED1       0.018144
     79 HAD          4.0590     7.1420    -3.7340 hc         1 ED1       0.018144
     80 HADA         5.6280     7.4950    -2.9980 hc         1 ED1       0.018144
     81 HADB         5.4260     7.6190    -4.7510 hc         1 ED1       0.018144
     82 HAC          6.9280     4.4440    -5.1650 hc         1 ED1       0.018144
     83 HACA         6.1960     5.7900    -6.0480 hc         1 ED1       0.018144
     84 HACB         7.4520     6.1020    -4.8410 hc         1 ED1       0.018144
     85 HBE          7.5910     4.8510     0.3230 h1         1 ED1       0.034200
     86 HBEA         7.5020     4.1190    -1.2900 h1         1 ED1       0.034200
     87 HBC          7.9370     2.4410     0.5300 hc         1 ED1       0.027450
     88 HBCA         6.4440     2.1210    -0.3710 hc         1 ED1       0.027450
     89 HAT          6.3910    -0.7170     3.6240 ha         1 ED1       0.099000
     90 HAM          7.1200    -2.9510     4.3650 ha         1 ED1       0.102000
     91 HAL          8.0400    -3.2650     6.6290 ha         1 ED1       0.102000
     92 HAS          8.2410    -1.3460     8.1590 ha         1 ED1       0.126000
     93 HAY          6.2730     0.3700     9.1720 ha         1 ED1       0.110000
     94 HAP          8.8620     2.3180     6.3610 ha         1 ED1       0.126000
     95 HAN          9.0580     4.2410     7.8870 ha         1 ED1       0.094000
     96 HAO          7.8680     4.2330    10.0440 ha         1 ED1       0.110000
     97 HBA          5.4150     1.6500    10.9990 hc         1 ED1       0.029200
     98 HBAA         5.9560     3.3080    11.2950 hc         1 ED1       0.029200
     99 HAZ          8.1220     2.3990    12.1610 hc         1 ED1       0.006200
    100 HAZA         7.4790     0.7630    11.9620 hc         1 ED1       0.006200
@<TRIPOS>BOND
     1     1     2 3   
     2     2     3 1   
     3     3     4 ar  
     4     3     6 ar  
     5     4     5 ar  
     6     4    54 1   
     7     5     8 ar  
     8     5    55 1   
     9     6     7 ar  
    10     6    56 1   
    11     7     8 ar  
    12     7    57 1   
    13     8     9 1   
    14     9    10 1   
    15     9    17 1   
    16    10    11 1   
    17    10    58 1   
    18    10    59 1   
    19    11    12 1   
    20    11    16 2   
    21    12    13 1   
    22    12    14 1   
    23    13    60 1   
    24    13    61 1   
    25    13    62 1   
    26    14    15 2   
    27    14    63 1   
    28    15    16 1   
    29    16    64 1   
    30    17    18 1   
    31    17    65 1   
    32    17    66 1   
    33    18    19 1   
    34    18    67 1   
    35    18    68 1   
    36    19    20 1   
    37    19    34 1   
    38    20    21 1   
    39    20    69 1   
    40    20    70 1   
    41    21    22 1   
    42    21    33 1   
    43    21    71 1   
    44    22    23 1   
    45    22    72 1   
    46    22    73 1   
    47    23    24 1   
    48    23    74 1   
    49    23    75 1   
    50    24    25 1   
    51    24    32 1   
    52    25    26 1   
    53    25    31 2   
    54    26    27 1   
    55    27    28 1   
    56    27    29 1   
    57    27    30 1   
    58    28    76 1   
    59    28    77 1   
    60    28    78 1   
    61    29    79 1   
    62    29    80 1   
    63    29    81 1   
    64    30    82 1   
    65    30    83 1   
    66    30    84 1   
    67    32    33 1   
    68    32    85 1   
    69    32    86 1   
    70    33    87 1   
    71    33    88 1   
    72    34    35 2   
    73    34    36 2   
    74    34    37 1   
    75    37    38 ar  
    76    37    42 ar  
    77    38    39 ar  
    78    38    89 1   
    79    39    40 ar  
    80    39    90 1   
    81    40    41 ar  
    82    40    91 1   
    83    41    42 ar  
    84    41    92 1   
    85    42    43 1   
    86    43    44 ar  
    87    43    45 ar  
    88    44    48 ar  
    89    44    93 1   
    90    45    46 ar  
    91    45    94 1   
    92    46    47 ar  
    93    46    95 1   
    94    47    48 ar  
    95    47    96 1   
    96    48    49 1   
    97    49    50 1   
    98    49    97 1   
    99    49    98 1   
   100    50    51 1   
   101    50    99 1   
   102    50   100 1   
   103    51    52 1   
   104    51    53 1   
@<TRIPOS>SUBSTRUCTURE
     1 ED1         1 TEMP              0 ****  ****    0 ROOT
