@<TRIPOS>MOLECULE
molecule
   62    65     1     0     0
SMALL
bcc


@<TRIPOS>ATOM
      1 CAB          0.0000     0.0000     0.0000 c3         1 ED2       0.012600
      2 NBH          1.4650     0.0000     0.0000 na         1 ED2      -0.198900
      3 CAQ          2.2660     0.0000     1.0860 cc         1 ED2       0.384400
      4 NAX          3.5100    -0.0000     0.6890 nd         1 ED2      -0.708000
      5 CAP          3.5450    -0.0000    -0.6520 cd         1 ED2       0.319200
      6 CBC          2.2760    -0.0060    -1.1030 cc         1 ED2      -0.270900
      7 CAW          1.8350    -0.0130    -2.5440 c3         1 ED2       0.321100
      8 NBE          1.5890     1.3610    -2.9860 nh         1 ED2      -0.740000
      9 CBB          0.3490     1.9530    -2.7650 ca         1 ED2       0.202600
     10 CAN          0.2420     3.0400    -1.9030 ca         1 ED2      -0.157000
     11 CAL         -0.9820     3.6280    -1.6800 ca         1 ED2      -0.084000
     12 CAZ         -2.1200     3.1310    -2.3220 ca         1 ED2      -0.074000
     13 CAF         -3.3960     3.7400    -2.0930 cg         1 ED2       0.236800
     14 NAC         -4.4070     4.2320    -1.9290 n1         1 ED2      -0.363800
     15 CAM         -2.0110     2.0380    -3.1870 ca         1 ED2      -0.084000
     16 CAO         -0.7820     1.4580    -3.4080 ca         1 ED2      -0.157000
     17 CAT          2.6480     2.1130    -3.6640 c3         1 ED2       0.142800
     18 CAU          2.4800     1.9780    -5.1780 c3         1 ED2       0.180800
     19 NBF          3.5920     2.6510    -5.8550 n3         1 ED2      -0.777500
     20 SBI          4.9310     1.7880    -6.3060 sy         1 ED2       1.388800
     21 OAD          6.0270     2.6910    -6.2540 o          1 ED2      -0.624800
     22 OAE          4.8920     0.5720    -5.5710 o          1 ED2      -0.624800
     23 CBD          4.7240     1.3530    -8.0010 cd         1 ED2       0.078200
     24 CAS          4.1320     0.2360    -8.4640 cc         1 ED2      -0.165600
     25 NBG          4.1850     0.2960    -9.8300 na         1 ED2      -0.165900
     26 CAA          3.6630    -0.7030   -10.7660 c3         1 ED2      -0.008400
     27 CAR          4.8100     1.4490   -10.1550 cc         1 ED2       0.414400
     28 NAY          5.1250     2.0780    -9.0550 nd         1 ED2      -0.603000
     29 CAV          3.5190     4.0880    -6.1310 c3         1 ED2       0.261100
     30 CBA          3.9610     4.8570    -4.9130 ca         1 ED2      -0.121300
     31 CAJ          5.3030     5.1280    -4.7150 ca         1 ED2      -0.127500
     32 CAH          5.7070     5.8330    -3.5970 ca         1 ED2      -0.140000
     33 CAG          4.7720     6.2680    -2.6770 ca         1 ED2      -0.105000
     34 CAI          3.4300     5.9970    -2.8750 ca         1 ED2      -0.140000
     35 CAK          3.0250     5.2970    -3.9950 ca         1 ED2      -0.127500
     36 HAB          0.0890     0.9760    -0.4620 h1         1 ED2       0.070700
     37 HABA        -0.5600    -0.8070    -0.4570 h1         1 ED2       0.070700
     38 HABB        -0.1390     0.1980     1.0560 h1         1 ED2       0.070700
     39 HAQ          1.9190     0.4270     2.0190 h5         1 ED2       0.058100
     40 HAP          4.5350    -0.0890    -1.0830 h4         1 ED2       0.048100
     41 HAW          2.6670    -0.4050    -3.1150 h1         1 ED2       0.063700
     42 HAWA         1.0860    -0.7960    -2.5260 h1         1 ED2       0.063700
     43 HAN          1.2370     3.4510    -1.7780 ha         1 ED2       0.152500
     44 HAL         -1.1510     4.5320    -1.1080 ha         1 ED2       0.148000
     45 HAM         -3.0540     1.7620    -3.2810 ha         1 ED2       0.148000
     46 HAO         -0.8070     0.8380    -4.2960 ha         1 ED2       0.152500
     47 HAT          2.9740     3.0280    -3.1830 h1         1 ED2       0.077200
     48 HATA         3.6220     1.7570    -3.9770 h1         1 ED2       0.077200
     49 HAU          2.5250     0.9020    -5.2920 h1         1 ED2       0.074700
     50 HAUA         1.5100     2.4590    -5.1380 h1         1 ED2       0.074700
     51 HAS          3.7990    -0.5110    -7.7530 h4         1 ED2       0.197000
     52 HAA          2.6610    -1.0770   -10.9360 h1         1 ED2       0.057700
     53 HAAA         3.9030    -0.4810   -11.7990 h1         1 ED2       0.057700
     54 HAAB         4.3420    -1.5470   -10.7750 h1         1 ED2       0.057700
     55 HAR          5.0240     1.4040   -11.2160 h5         1 ED2       0.067100
     56 HAV          4.0980     4.2050    -7.0390 h1         1 ED2       0.069700
     57 HAVA         2.7370     4.8040    -6.3520 h1         1 ED2       0.069700
     58 HAJ          6.0690     4.8750    -5.4390 ha         1 ED2       0.146500
     59 HAH          6.7800     5.9490    -3.6940 ha         1 ED2       0.136000
     60 HAG          5.2110     6.6560    -1.7660 ha         1 ED2       0.132000
     61 HAI          2.6680     6.1420    -2.1200 ha         1 ED2       0.136000
     62 HAK          1.9770     5.4280    -4.2350 ha         1 ED2       0.146500
@<TRIPOS>BOND
     1     1     2 1
     2     1    36 1
     3     1    37 1
     4     1    38 1
     5     6     2 1
     6     2     3 1
     7     3     4 2
     8     3    39 1
     9     5     4 1
    10     6     5 2
    11     5    40 1
    12     7     6 1
    13     8     7 1
    14     7    41 1
    15     7    42 1
    16    17     8 1
    17     8     9 1
    18    10     9 ar
    19     9    16 ar
    20    10    11 ar
    21    10    43 1
    22    11    12 ar
    23    11    44 1
    24    12    15 ar
    25    12    13 1
    26    13    14 3
    27    16    15 ar
    28    15    45 1
    29    16    46 1
    30    17    18 1
    31    17    47 1
    32    17    48 1
    33    19    18 1
    34    18    49 1
    35    18    50 1
    36    29    19 1
    37    20    19 1
    38    22    20 2
    39    20    21 2
    40    20    23 1
    41    24    23 2
    42    23    28 1
    43    24    25 1
    44    24    51 1
    45    26    25 1
    46    25    27 1
    47    26    52 1
    48    26    53 1
    49    26    54 1
    50    28    27 2
    51    27    55 1
    52    30    29 1
    53    29    56 1
    54    29    57 1
    55    35    30 ar
    56    30    31 ar
    57    31    32 ar
    58    31    58 1
    59    33    32 ar
    60    32    59 1
    61    34    33 ar
    62    33    60 1
    63    35    34 ar
    64    34    61 1
    65    35    62 1
@<TRIPOS>SUBSTRUCTURE
     1 ED2         1 TEMP              0 ****  ****    0 ROOT
