@<TRIPOS>MOLECULE
molecule
   82    85     1     0     0
SMALL
bcc


@<TRIPOS>ATOM
      1 NAF         -1.2960    -0.0150    -2.2170 n1         1 ED4      -0.377800
      2 CAJ         -0.7180     0.0010    -1.2390 cg         1 ED4       0.247800
      3 CBE          0.0000     0.0000     0.0000 ca         1 ED4      -0.087000
      4 CAK          1.3980     0.0000     0.0000 ca         1 ED4      -0.041000
      5 CAM          2.0850     0.0000     1.1920 ca         1 ED4      -0.230500
      6 CAL         -0.6960     0.0050     1.2130 ca         1 ED4      -0.041000
      7 CAN         -0.0030     0.0050     2.4020 ca         1 ED4      -0.230500
      8 CBF          1.3890    -0.0010     2.3990 ca         1 ED4       0.228600
      9 NBK          2.0870    -0.0010     3.6020 nh         1 ED4      -0.714000
     10 CAY          1.3600     0.1020     4.8700 c3         1 ED4       0.312100
     11 CBG          1.1900    -1.2720     5.4650 cc         1 ED4      -0.270900
     12 NBN          0.1980    -2.1680     5.1740 na         1 ED4      -0.178900
     13 CAB         -0.9000    -1.9740     4.2230 c3         1 ED4       0.019600
     14 CAP          0.4200    -3.2670     5.9260 cc         1 ED4       0.401400
     15 NBA          1.4900    -3.0710     6.6480 nd         1 ED4      -0.705000
     16 CAO          1.9860    -1.8550     6.3810 cd         1 ED4       0.330200
     17 CAW          3.5480    -0.1040     3.6020 c3         1 ED4       0.206800
     18 CAX          4.1590     1.2970     3.5430 c3         1 ED4       0.194800
     19 NBL          5.6200     1.1930     3.5430 n3         1 ED4      -0.814500
     20 SBP          6.4690     1.4360     4.9440 sy         1 ED4       1.377800
     21 CBH          6.6190    -0.1270     5.7420 cc         1 ED4       0.085200
     22 NBB          5.7540    -0.6490     6.6250 nc         1 ED4      -0.630000
     23 CAQ          6.1840    -1.8200     7.0080 cd         1 ED4       0.401400
     24 NBM          7.3470    -2.0830     6.3750 na         1 ED4      -0.177900
     25 CAA          8.1610    -3.2930     6.5190 c3         1 ED4       0.025600
     26 CAR          7.6190    -1.0120     5.5670 cd         1 ED4      -0.162600
     27 OAI          7.7820     1.8180     4.5570 o          1 ED4      -0.626800
     28 OAH          5.6420     2.2350     5.7800 o          1 ED4      -0.626800
     29 CAZ          6.3320     0.8730     2.3030 c3         1 ED4       0.241800
     30 CBI          6.5900     2.1600     1.5160 c3         1 ED4      -0.091700
     31 CAT          7.4730     1.8490     0.3050 c3         1 ED4      -0.099900
     32 CAV          7.7570     3.1460    -0.4600 c3         1 ED4       0.116500
     33 CAS          5.2570     2.7430     1.0420 c3         1 ED4      -0.099900
     34 CAU          5.5170     4.0490     0.2850 c3         1 ED4       0.116500
     35 NBJ          6.4780     3.7880    -0.7940 n          1 ED4      -0.481800
     36 CBD          6.1940     4.1310    -2.0660 c          1 ED4       0.759100
     37 OAG          6.9980     3.9090    -2.9490 o          1 ED4      -0.620000
     38 OBC          5.0180     4.7200    -2.3570 os         1 ED4      -0.436900
     39 CBO          4.7790     5.0600    -3.7480 c3         1 ED4       0.176800
     40 CAE          4.8260     3.7910    -4.6010 c3         1 ED4      -0.106433
     41 CAD          3.4020     5.7140    -3.8830 c3         1 ED4      -0.106433
     42 CAC          5.8570     6.0360    -4.2260 c3         1 ED4      -0.106433
     43 HAK          1.9400     0.0010    -0.9380 ha         1 ED4       0.140500
     44 HAM          3.1680    -0.0020     1.1920 ha         1 ED4       0.141500
     45 HAL         -1.7790     0.0090     1.2170 ha         1 ED4       0.140500
     46 HAN         -0.5410     0.0060     3.3420 ha         1 ED4       0.141500
     47 HAY          1.9200     0.7260     5.5570 h1         1 ED4       0.070200
     48 HAYA         0.3870     0.5430     4.6930 h1         1 ED4       0.070200
     49 HAB         -1.3750    -1.0180     4.4110 h1         1 ED4       0.058700
     50 HABA        -0.5100    -1.9910     3.2130 h1         1 ED4       0.058700
     51 HABB        -1.6270    -2.7680     4.3440 h1         1 ED4       0.058700
     52 HAP         -0.1900    -4.1630     5.9310 h5         1 ED4       0.064100
     53 HAO          2.8690    -1.4160     6.8290 h4         1 ED4       0.053100
     54 HAW          3.8750    -0.6030     4.5070 h1         1 ED4       0.065200
     55 HAWA         3.8700    -0.6750     2.7390 h1         1 ED4       0.065200
     56 HAX          3.8380     1.8670     4.4060 h1         1 ED4       0.077200
     57 HAXA         3.8320     1.7950     2.6390 h1         1 ED4       0.077200
     58 HAQ          5.6890    -2.4730     7.7170 h5         1 ED4       0.078100
     59 HAA          8.9530    -3.1120     7.2350 h1         1 ED4       0.060700
     60 HAAA         8.5930    -3.5540     5.5610 h1         1 ED4       0.060700
     61 HAAB         7.5380    -4.1080     6.8680 h1         1 ED4       0.060700
     62 HAR          8.4790    -0.8950     4.9180 h4         1 ED4       0.190000
     63 HAZ          5.7310     0.1990     1.7050 h1         1 ED4       0.051200
     64 HAZA         7.2770     0.4000     2.5410 h1         1 ED4       0.051200
     65 HBI          7.0910     2.8810     2.1500 hc         1 ED4       0.073700
     66 HAT          8.4070     1.4170     0.6410 hc         1 ED4       0.053200
     67 HATA         6.9590     1.1520    -0.3460 hc         1 ED4       0.053200
     68 HAV          8.2960     2.9170    -1.3720 h1         1 ED4       0.063450
     69 HAVA         8.3460     3.8110     0.1600 h1         1 ED4       0.063450
     70 HAS          4.6260     2.9430     1.8990 hc         1 ED4       0.053200
     71 HASA         4.7680     2.0360     0.3830 hc         1 ED4       0.053200
     72 HAU          5.9270     4.7870     0.9650 h1         1 ED4       0.063450
     73 HAUA         4.5880     4.4140    -0.1370 h1         1 ED4       0.063450
     74 HAE          4.3170     3.9680    -5.5410 hc         1 ED4       0.049922
     75 HAEA         4.3370     2.9820    -4.0720 hc         1 ED4       0.049922
     76 HAEB         5.8580     3.5230    -4.7940 hc         1 ED4       0.049922
     77 HAD          2.6360     5.0060    -3.5940 hc         1 ED4       0.049922
     78 HADA         3.3510     6.5850    -3.2400 hc         1 ED4       0.049922
     79 HADB         3.2450     6.0160    -4.9120 hc         1 ED4       0.049922
     80 HAC          6.0620     6.7580    -3.4450 hc         1 ED4       0.049922
     81 HACA         6.7620     5.4890    -4.4590 hc         1 ED4       0.049922
     82 HACB         5.5090     6.5530    -5.1120 hc         1 ED4       0.049922
@<TRIPOS>BOND
     1     2     1 3
     2     3     2 1
     3     6     3 ar
     4     3     4 ar
     5     5     4 ar
     6     4    43 1
     7     8     5 ar
     8     5    44 1
     9     7     6 ar
    10     6    45 1
    11     7     8 ar
    12     7    46 1
    13     9     8 1
    14    17     9 1
    15     9    10 1
    16    10    11 1
    17    10    47 1
    18    10    48 1
    19    11    12 1
    20    11    16 2
    21    13    12 1
    22    12    14 1
    23    13    49 1
    24    13    50 1
    25    13    51 1
    26    14    15 2
    27    14    52 1
    28    16    15 1
    29    16    53 1
    30    17    18 1
    31    17    54 1
    32    17    55 1
    33    19    18 1
    34    18    56 1
    35    18    57 1
    36    20    19 1
    37    19    29 1
    38    27    20 2
    39    28    20 2
    40    20    21 1
    41    21    26 2
    42    21    22 1
    43    22    23 2
    44    24    23 1
    45    23    58 1
    46    26    24 1
    47    24    25 1
    48    25    59 1
    49    25    60 1
    50    25    61 1
    51    26    62 1
    52    30    29 1
    53    29    63 1
    54    29    64 1
    55    31    30 1
    56    33    30 1
    57    30    65 1
    58    32    31 1
    59    31    66 1
    60    31    67 1
    61    32    35 1
    62    32    68 1
    63    32    69 1
    64    34    33 1
    65    33    70 1
    66    33    71 1
    67    35    34 1
    68    34    72 1
    69    34    73 1
    70    36    35 1
    71    38    36 1
    72    37    36 2
    73    39    38 1
    74    41    39 1
    75    42    39 1
    76    40    39 1
    77    40    74 1
    78    40    75 1
    79    40    76 1
    80    41    77 1
    81    41    78 1
    82    41    79 1
    83    42    80 1
    84    42    81 1
    85    42    82 1
@<TRIPOS>SUBSTRUCTURE
     1 ED4         1 TEMP              0 ****  ****    0 ROOT
