@<TRIPOS>MOLECULE
ED5
   85    88     1     0     0
SMALL
bcc


@<TRIPOS>ATOM
      1 OAG          0.0000     0.0000     0.0000 o          1 ED5      -0.661000
      2 CBE          1.2150     0.0000     0.0000 c          1 ED5       0.703100
      3 OBD          1.8880     0.0000     1.1660 os         1 ED5      -0.418900
      4 CBP          1.0960     0.0010     2.3830 c3         1 ED5       0.193800
      5 CAC          0.2130    -1.2480     2.4180 c3         1 ED5      -0.030433
      6 CAD          2.0280     0.0010     3.5970 c3         1 ED5      -0.030433
      7 CAE          0.2140     1.2510     2.4180 c3         1 ED5      -0.030433
      8 NBL          1.8890    -0.0070    -1.1680 n          1 ED5      -0.145800
      9 CAX          1.1680    -0.0120    -2.4480 c3         1 ED5       0.057500
     10 CAV          1.6770    -1.1850    -3.2930 c3         1 ED5      -0.048400
     11 CAW          3.3580    -0.0010    -1.1830 c3         1 ED5       0.057500
     12 CAU          3.8460    -1.1730    -2.0400 c3         1 ED5      -0.048400
     13 CBK          3.1980    -1.0890    -3.4280 c3         1 ED5      -0.078700
     14 CBB          3.7100    -2.2390    -4.3000 c3         1 ED5       0.206800
     15 NBN          3.1720    -2.1000    -5.6560 n3         1 ED5      -0.521500
     16 SBQ          4.0420    -1.2940    -6.8120 sy         1 ED5       1.056200
     17 OAI          3.0930    -0.6650    -7.6620 o          1 ED5      -0.583300
     18 OAH          5.0620    -0.5830    -6.1240 o          1 ED5      -0.583300
     19 CBJ          4.8580    -2.5100    -7.7920 ca         1 ED5      -0.167500
     20 CAN          4.5100    -2.6760    -9.1190 ca         1 ED5       0.000000
     21 CAL          5.1520    -3.6290    -9.8880 ca         1 ED5      -0.135000
     22 CAK          6.1400    -4.4170    -9.3280 ca         1 ED5      -0.039000
     23 CAM          6.4880    -4.2520    -8.0020 ca         1 ED5      -0.133000
     24 CBF          5.8510    -3.2940    -7.2350 ca         1 ED5       0.023700
     25 CAA          6.2340    -3.1090    -5.7890 c3         1 ED5      -0.034800
     26 CAZ          1.8670    -2.6740    -5.9890 c3         1 ED5       0.171800
     27 CAY          2.0590    -3.8730    -6.9210 c3         1 ED5       0.120800
     28 NBM          0.7500    -4.4140    -7.2960 nh         1 ED5      -0.374000
     29 CBH          0.0400    -3.8480    -8.3520 ca         1 ED5       0.093600
     30 CAQ          0.6210    -2.8400    -9.1180 ca         1 ED5      -0.199000
     31 CAO         -0.0780    -2.2790   -10.1620 ca         1 ED5      -0.013500
     32 CAR         -1.2450    -4.2950    -8.6430 ca         1 ED5      -0.199000
     33 CAP         -1.9490    -3.7390    -9.6870 ca         1 ED5      -0.013500
     34 CBG         -1.3720    -2.7220   -10.4540 ca         1 ED5      -0.040000
     35 CAJ         -2.1020    -2.1400   -11.5400 cg         1 ED5       0.245800
     36 NAF         -2.6770    -1.6600   -12.3940 n1         1 ED5      -0.401800
     37 CBA          0.1880    -5.5500    -6.5610 c3         1 ED5       0.282100
     38 CBI         -0.6210    -5.0420    -5.3950 cc         1 ED5      -0.467900
     39 CAS         -1.9470    -4.8090    -5.3800 cd         1 ED5       0.345200
     40 NBC         -2.2760    -4.3670    -4.1560 nd         1 ED5      -0.612000
     41 CAT         -1.2040    -4.3190    -3.4130 cc         1 ED5       0.229400
     42 NBO         -0.1500    -4.7370    -4.1470 na         1 ED5       0.294100
     43 CAB          1.2390    -4.8370    -3.6930 c3         1 ED5      -0.050400
     44 HAC         -0.6450    -1.1020     1.7730 hc         1 ED5       0.019478
     45 HACA         0.7820    -2.1030     2.0740 hc         1 ED5       0.019478
     46 HACB        -0.1240    -1.4240     3.4330 hc         1 ED5       0.019478
     47 HAD          2.6530     0.8860     3.5730 hc         1 ED5       0.019478
     48 HADA         1.4380     0.0020     4.5060 hc         1 ED5       0.019478
     49 HADB         2.6530    -0.8830     3.5730 hc         1 ED5       0.019478
     50 HAE          0.7800     2.1020     2.0590 hc         1 ED5       0.019478
     51 HAEA        -0.1110     1.4360     3.4340 hc         1 ED5       0.019478
     52 HAEB        -0.6510     1.1000     1.7840 hc         1 ED5       0.019478
     53 HAX          1.3520     0.9180    -2.9710 h1         1 ED5       0.036200
     54 HAXA         0.1070    -0.1300    -2.2660 h1         1 ED5       0.036200
     55 HAV          1.4160    -2.1180    -2.8080 hc         1 ED5       0.024700
     56 HAVA         1.2240    -1.1440    -4.2760 hc         1 ED5       0.024700
     57 HAW          3.7310    -0.1110    -0.1720 h1         1 ED5       0.036200
     58 HAWA         3.7120     0.9310    -1.6080 h1         1 ED5       0.036200
     59 HAU          3.5660    -2.1060    -1.5670 hc         1 ED5       0.024700
     60 HAUA         4.9230    -1.1210    -2.1410 hc         1 ED5       0.024700
     61 HBK          3.4570    -0.1420    -3.8860 hc         1 ED5       0.055700
     62 HBB          3.3870    -3.1830    -3.8780 h1         1 ED5       0.032700
     63 HBBA         4.7920    -2.2110    -4.3350 h1         1 ED5       0.032700
     64 HAN          3.7360    -2.0580    -9.5580 ha         1 ED5       0.132000
     65 HAL          4.8790    -3.7590   -10.9280 ha         1 ED5       0.114000
     66 HAK          6.6400    -5.1660    -9.9300 ha         1 ED5       0.105000
     67 HAM          7.2640    -4.8680    -7.5640 ha         1 ED5       0.114000
     68 HAA          7.2500    -3.4550    -5.6370 hc         1 ED5       0.041367
     69 HAAA         5.5610    -3.6800    -5.1610 hc         1 ED5       0.041367
     70 HAAB         6.1680    -2.0600    -5.5290 hc         1 ED5       0.041367
     71 HAZ          1.2580    -1.9260    -6.4830 h1         1 ED5       0.047700
     72 HAZA         1.3730    -2.9980    -5.0800 h1         1 ED5       0.047700
     73 HAY          2.6330    -4.6380    -6.4120 h1         1 ED5       0.035700
     74 HAYA         2.5880    -3.5560    -7.8110 h1         1 ED5       0.035700
     75 HAQ          1.6230    -2.4970    -8.8910 ha         1 ED5       0.131000
     76 HAO          0.3720    -1.4930   -10.7560 ha         1 ED5       0.110500
     77 HAR         -1.6910    -5.0830    -8.0490 ha         1 ED5       0.131000
     78 HAP         -2.9500    -4.0860    -9.9120 ha         1 ED5       0.110500
     79 HBA         -0.4510    -6.1260    -7.2200 h1         1 ED5       0.030700
     80 HBAA         0.9920    -6.1780    -6.1980 h1         1 ED5       0.030700
     81 HAS         -2.6280    -4.9520    -6.2100 h4         1 ED5       0.008100
     82 HAT         -1.1660    -4.0010    -2.3780 h5         1 ED5       0.028100
     83 HAB          1.4510    -4.0350    -2.9970 h1         1 ED5       0.033700
     84 HABA         1.9040    -4.7610    -4.5450 h1         1 ED5       0.033700
     85 HABB         1.3910    -5.7910    -3.2020 h1         1 ED5       0.033700
@<TRIPOS>BOND
     1     1     2 2   
     2     2     3 1   
     3     2     8 1   
     4     3     4 1   
     5     4     5 1   
     6     4     6 1   
     7     4     7 1   
     8     5    44 1   
     9     5    45 1   
    10     5    46 1   
    11     6    47 1   
    12     6    48 1   
    13     6    49 1   
    14     7    50 1   
    15     7    51 1   
    16     7    52 1   
    17     8     9 1   
    18     8    11 1   
    19     9    10 1   
    20     9    53 1   
    21     9    54 1   
    22    10    13 1   
    23    10    55 1   
    24    10    56 1   
    25    11    12 1   
    26    11    57 1   
    27    11    58 1   
    28    12    13 1   
    29    12    59 1   
    30    12    60 1   
    31    13    14 1   
    32    13    61 1   
    33    14    15 1   
    34    14    62 1   
    35    14    63 1   
    36    15    16 1   
    37    15    26 1   
    38    16    17 2   
    39    16    18 2   
    40    16    19 1   
    41    19    20 ar  
    42    19    24 ar  
    43    20    21 ar  
    44    20    64 1   
    45    21    22 ar  
    46    21    65 1   
    47    22    23 ar  
    48    22    66 1   
    49    23    24 ar  
    50    23    67 1   
    51    24    25 1   
    52    25    68 1   
    53    25    69 1   
    54    25    70 1   
    55    26    27 1   
    56    26    71 1   
    57    26    72 1   
    58    27    28 1   
    59    27    73 1   
    60    27    74 1   
    61    28    29 1   
    62    28    37 1   
    63    29    30 ar  
    64    29    32 ar  
    65    30    31 ar  
    66    30    75 1   
    67    31    34 ar  
    68    31    76 1   
    69    32    33 ar  
    70    32    77 1   
    71    33    34 ar  
    72    33    78 1   
    73    34    35 1   
    74    35    36 3   
    75    37    38 1   
    76    37    79 1   
    77    37    80 1   
    78    38    39 2   
    79    38    42 1   
    80    39    40 1   
    81    39    81 1   
    82    40    41 2   
    83    41    42 1   
    84    41    82 1   
    85    42    43 1   
    86    43    83 1   
    87    43    84 1   
    88    43    85 1   
@<TRIPOS>SUBSTRUCTURE
     1 ED5         1 TEMP              0 ****  ****    0 ROOT
