@<TRIPOS>MOLECULE
molecule
   65    68     1     0     0
SMALL
bcc


@<TRIPOS>ATOM
      1 CAA          0.0000     0.0000     0.0000 c3         1 ED7      -0.101800
      2 CBA          1.5070     0.0000     0.0000 ca         1 ED7       0.009700
      3 CAL          2.2000     0.0000     1.1970 ca         1 ED7      -0.156000
      4 CAJ          3.5810     0.0010     1.1970 ca         1 ED7      -0.087000
      5 CAK          4.2730     0.0020    -0.0010 ca         1 ED7      -0.148000
      6 CAQ          3.5810     0.0030    -1.1970 ca         1 ED7      -0.044000
      7 CBF          2.1980    -0.0050    -1.1970 ca         1 ED7      -0.334500
      8 SBJ          1.3170    -0.0040    -2.7230 sy         1 ED7       1.397200
      9 OAD          0.9350    -1.3510    -2.9660 o          1 ED7      -0.650300
     10 OAE          0.3850     1.0660    -2.6480 o          1 ED7      -0.650300
     11 NBH          2.3960     0.3980    -3.9130 n3         1 ED7      -0.785500
     12 CAX          2.5110     1.7890    -4.3580 c3         1 ED7       0.082100
     13 CBC          3.6330     2.4640    -3.6110 ca         1 ED7      -0.223300
     14 CAM          4.9170     2.4370    -4.1210 ca         1 ED7      -0.148000
     15 CAH          5.9460     3.0560    -3.4360 ca         1 ED7      -0.118000
     16 CAG          5.6900     3.7030    -2.2410 ca         1 ED7      -0.078000
     17 CAI          4.4050     3.7300    -1.7310 ca         1 ED7      -0.118000
     18 CAN          3.3750     3.1150    -2.4190 ca         1 ED7      -0.148000
     19 CAW          3.2360    -0.6380    -4.5200 c3         1 ED7      -0.032200
     20 CAV          2.5640    -1.1570    -5.7930 c3         1 ED7      -0.149200
     21 NBG          3.4040    -2.1920    -6.4000 nh         1 ED7      -0.633000
     22 CBD          4.3740    -1.8420    -7.3350 ca         1 ED7       0.154600
     23 CAR          5.1710    -2.8260    -7.9110 ca         1 ED7      -0.187500
     24 CAO          6.1330    -2.4830    -8.8350 ca         1 ED7      -0.057000
     25 CBB          6.3070    -1.1440    -9.1940 ca         1 ED7      -0.036000
     26 CAF          7.3050    -0.7830   -10.1560 cg         1 ED7       0.239800
     27 NAC          8.0930    -0.5140   -10.9290 n1         1 ED7      -0.353800
     28 CAP          5.5050    -0.1570    -8.6130 ca         1 ED7      -0.057000
     29 CAS          4.5410    -0.5080    -7.6950 ca         1 ED7      -0.187500
     30 CAY          3.2220    -3.5960    -6.0250 c3         1 ED7       0.144100
     31 CBE          2.2100    -4.2350    -6.9420 cc         1 ED7      -0.304900
     32 CAT          2.4720    -4.9450    -8.0560 cd         1 ED7       0.300200
     33 NAZ          1.3020    -5.3370    -8.5820 nd         1 ED7      -0.665000
     34 CAU          0.3260    -4.8980    -7.8360 cc         1 ED7       0.425400
     35 NBI          0.8490    -4.2100    -6.7980 na         1 ED7      -0.210900
     36 CAB          0.1000    -3.5570    -5.7220 c3         1 ED7       0.020600
     37 HAA         -0.0630     1.0420    -0.2900 hc         1 ED7       0.081700
     38 HAAA        -0.2940     0.1960     1.0240 hc         1 ED7       0.081700
     39 HAAB        -0.1990    -1.0060    -0.3500 hc         1 ED7       0.081700
     40 HAL          1.9200    -0.1320     2.2350 ha         1 ED7       0.142000
     41 HAJ          4.2300     0.3060     2.0080 ha         1 ED7       0.134000
     42 HAK          5.3470     0.0600    -0.1250 ha         1 ED7       0.135000
     43 HAQ          3.7750    -0.1370    -2.2540 ha         1 ED7       0.157000
     44 HAX          3.5430     1.9560    -4.6420 h1         1 ED7       0.192200
     45 HAXA         2.6380     2.4210    -3.4880 h1         1 ED7       0.192200
     46 HAM          4.8450     2.2500    -5.1850 ha         1 ED7       0.155000
     47 HAH          6.6510     3.2790    -4.2280 ha         1 ED7       0.142500
     48 HAG          6.6190     4.1300    -1.8830 ha         1 ED7       0.145000
     49 HAI          4.1140     4.4750    -1.0010 ha         1 ED7       0.142500
     50 HAN          2.3020     3.2610    -2.3980 ha         1 ED7       0.155000
     51 HAW          3.0560    -0.6440    -5.5880 h1         1 ED7       0.164200
     52 HAWA         3.0070    -1.6480    -4.2020 h1         1 ED7       0.164200
     53 HAV          2.9200    -1.3060    -6.8050 h1         1 ED7       0.200200
     54 HAVA         1.5070    -0.9230    -5.8360 h1         1 ED7       0.200200
     55 HAR          4.6200    -3.7510    -7.7900 ha         1 ED7       0.155500
     56 HAO          6.3580    -3.3020    -9.5080 ha         1 ED7       0.157500
     57 HAP          5.9340     0.7890    -8.3050 ha         1 ED7       0.157500
     58 HAS          3.7620     0.2410    -7.6160 ha         1 ED7       0.155500
     59 HAY          3.5140    -4.1010    -6.9390 h1         1 ED7       0.140700
     60 HAYA         3.3000    -4.1930    -5.1250 h1         1 ED7       0.140700
     61 HAT          3.3790    -4.7850    -8.6260 h4         1 ED7       0.040100
     62 HAU         -0.7280    -4.7170    -7.6650 h5         1 ED7       0.068100
     63 HAB         -0.3980    -4.3950    -5.2510 h1         1 ED7       0.069033
     64 HABA         0.6290    -2.9860    -4.9690 h1         1 ED7       0.069033
     65 HABB        -0.7080    -3.1090    -6.2880 h1         1 ED7       0.069033
@<TRIPOS>BOND
     1     2     1 1
     2     1    37 1
     3     1    38 1
     4     1    39 1
     5     7     2 ar
     6     2     3 ar
     7     4     3 ar
     8     3    40 1
     9     5     4 ar
    10     4    41 1
    11     6     5 ar
    12     5    42 1
    13     6     7 ar
    14     6    43 1
    15     8     7 1
    16     9     8 2
    17    10     8 2
    18     8    11 1
    19    12    11 1
    20    11    19 1
    21    12    13 1
    22    12    44 1
    23    12    45 1
    24    13    14 ar
    25    13    18 ar
    26    14    15 ar
    27    14    46 1
    28    15    16 ar
    29    15    47 1
    30    17    16 ar
    31    16    48 1
    32    18    17 ar
    33    17    49 1
    34    18    50 1
    35    20    19 1
    36    19    51 1
    37    19    52 1
    38    20    21 1
    39    20    53 1
    40    20    54 1
    41    21    30 1
    42    21    22 1
    43    29    22 ar
    44    22    23 ar
    45    23    24 ar
    46    23    55 1
    47    25    24 ar
    48    24    56 1
    49    28    25 ar
    50    25    26 1
    51    26    27 3
    52    29    28 ar
    53    28    57 1
    54    29    58 1
    55    30    31 1
    56    30    59 1
    57    30    60 1
    58    31    35 1
    59    31    32 2
    60    32    33 1
    61    32    61 1
    62    34    33 2
    63    35    34 1
    64    34    62 1
    65    36    35 1
    66    36    63 1
    67    36    64 1
    68    36    65 1
@<TRIPOS>SUBSTRUCTURE
     1 ED7         1 TEMP              0 ****  ****    0 ROOT
