@<TRIPOS>MOLECULE
ED7
   65    73     1     0     0
SMALL
bcc


@<TRIPOS>ATOM
      1 CAA          0.0000     0.0000     0.0000 c3         1 ED7      -0.124000
      2 CBA          1.5070     0.0000     0.0000 ca         1 ED7       0.025000
      3 CAL          2.2000     0.0000     1.1970 ca         1 ED7      -0.135000
      4 CAJ          3.5810     0.0010     1.1970 ca         1 ED7      -0.064000
      5 CAK          4.2730     0.0020    -0.0010 ca         1 ED7      -0.123000
      6 CAQ          3.5810     0.0030    -1.1970 ca         1 ED7      -0.040000
      7 CBF          2.1980    -0.0050    -1.1970 ca         1 ED7      -0.625000
      8 SBJ          1.3170    -0.0040    -2.7230 s6         1 ED7       2.368000
      9 OAD          0.9350    -1.3510    -2.9660 o          1 ED7      -0.878500
     10 OAE          0.3850     1.0660    -2.6480 o          1 ED7      -0.878500
     11 NBH          2.3960     0.3980    -3.9130 n3         1 ED7      -0.481000
     12 CAX          2.5110     1.7890    -4.3580 c3         1 ED7      -0.233000
     13 CBC          3.6330     2.4640    -3.6110 DU         1 ED7      -0.230000
     14 CAM          4.9170     2.4370    -4.1210 c2         1 ED7      -0.129000
     15 CAH          5.9460     3.0560    -3.4360 c2         1 ED7      -0.082500
     16 CAG          5.6900     3.7030    -2.2410 c2         1 ED7      -0.050000
     17 CAI          4.4050     3.7300    -1.7310 c2         1 ED7      -0.082500
     18 CAN          3.3750     3.1150    -2.4190 c2         1 ED7      -0.129000
     19 CAW          3.2360    -0.6380    -4.5200 c3         1 ED7      -0.343000
     20 CAV          2.5640    -1.1570    -5.7930 DU         1 ED7      -0.474000
     21 NBG          3.4040    -2.1920    -6.4000 nx         1 ED7       0.233000
     22 CBD          4.3740    -1.8420    -7.3350 ca         1 ED7      -0.084000
     23 CAR          5.1710    -2.8260    -7.9110 ca         1 ED7      -0.165000
     24 CAO          6.1330    -2.4830    -8.8350 ca         1 ED7      -0.035500
     25 CBB          6.3070    -1.1440    -9.1940 ca         1 ED7       0.024000
     26 CAF          7.3050    -0.7830   -10.1560 c1         1 ED7      -0.101000
     27 NAC          8.0930    -0.5140   -10.9290 n1         1 ED7      -0.045000
     28 CAP          5.5050    -0.1570    -8.6130 ca         1 ED7      -0.035500
     29 CAS          4.5410    -0.5080    -7.6950 ca         1 ED7      -0.165000
     30 CAY          3.2220    -3.5960    -6.0250 c3         1 ED7      -0.197000
     31 CBE          2.2100    -4.2350    -6.9420 c3         1 ED7      -0.382000
     32 CAT          2.4720    -4.9450    -8.0560 c2         1 ED7      -0.167000
     33 NAZ          1.3020    -5.3370    -8.5820 n2         1 ED7      -0.042000
     34 CAU          0.3260    -4.8980    -7.8360 c2         1 ED7      -0.229000
     35 NBI          0.8490    -4.2100    -6.7980 n3         1 ED7       0.283000
     36 CAB          0.1000    -3.5570    -5.7220 c3         1 ED7      -0.119000
     37 HAA         -0.0630     1.0420    -0.2900 hc         1 ED7       0.085333
     38 HAAA        -0.2940     0.1960     1.0240 hc         1 ED7       0.085333
     39 HAAB        -0.1990    -1.0060    -0.3500 hc         1 ED7       0.085333
     40 HAL          1.9200    -0.1320     2.2350 ha         1 ED7       0.119000
     41 HAJ          4.2300     0.3060     2.0080 ha         1 ED7       0.105000
     42 HAK          5.3470     0.0600    -0.1250 ha         1 ED7       0.109000
     43 HAQ          3.7750    -0.1370    -2.2540 ha         1 ED7       0.142000
     44 HAX          3.5430     1.9560    -4.6420 DU         1 ED7       0.225000
     45 HAXA         2.6380     2.4210    -3.4880 DU         1 ED7       0.225000
     46 HAM          4.8450     2.2500    -5.1850 ha         1 ED7       0.134000
     47 HAH          6.6510     3.2790    -4.2280 ha         1 ED7       0.112500
     48 HAG          6.6190     4.1300    -1.8830 ha         1 ED7       0.112000
     49 HAI          4.1140     4.4750    -1.0010 ha         1 ED7       0.112500
     50 HAN          2.3020     3.2610    -2.3980 ha         1 ED7       0.134000
     51 HAW          3.0560    -0.6440    -5.5880 DU         1 ED7       0.283000
     52 HAWA         3.0070    -1.6480    -4.2020 h1         1 ED7       0.091000
     53 HAV          2.9200    -1.3060    -6.8050 DU         1 ED7       0.222000
     54 HAVA         1.5070    -0.9230    -5.8360 hx         1 ED7       0.157000
     55 HAR          4.6200    -3.7510    -7.7900 ha         1 ED7       0.138500
     56 HAO          6.3580    -3.3020    -9.5080 ha         1 ED7       0.124500
     57 HAP          5.9340     0.7890    -8.3050 ha         1 ED7       0.124500
     58 HAS          3.7620     0.2410    -7.6160 ha         1 ED7       0.138500
     59 HAY          3.5140    -4.1010    -6.9390 DU         1 ED7       0.166000
     60 HAYA         3.3000    -4.1930    -5.1250 hx         1 ED7       0.163000
     61 HAT          3.3790    -4.7850    -8.6260 h4         1 ED7       0.145000
     62 HAU         -0.7280    -4.7170    -7.6650 h5         1 ED7       0.158000
     63 HAB         -0.3980    -4.3950    -5.2510 h1         1 ED7       0.079667
     64 HABA         0.6290    -2.9860    -4.9690 h1         1 ED7       0.079667
     65 HABB        -0.7080    -3.1090    -6.2880 h1         1 ED7       0.079667
@<TRIPOS>BOND
     1     1     2 1   
     2     1    37 1   
     3     1    38 1   
     4     1    39 1   
     5     2     3 1   
     6     2     7 1   
     7     3     4 1   
     8     3    40 1   
     9     4     5 1   
    10     4    41 1   
    11     5     6 1   
    12     5    42 1   
    13     6     7 1   
    14     6    43 1   
    15     7     8 1   
    16     8     9 1   
    17     8    10 1   
    18     8    11 1   
    19    11    12 1   
    20    11    19 1   
    21    12    13 1   
    22    12    44 1   
    23    12    45 1   
    24    13    14 1   
    25    13    18 1   
    26    13    44 1   
    27    13    45 1   
    28    14    15 1   
    29    14    46 1   
    30    15    16 1   
    31    15    47 1   
    32    16    17 1   
    33    16    48 1   
    34    17    18 1   
    35    17    49 1   
    36    18    50 1   
    37    19    20 1   
    38    19    51 1   
    39    19    52 1   
    40    20    21 1   
    41    20    51 1   
    42    20    53 1   
    43    20    54 1   
    44    21    22 1   
    45    21    30 1   
    46    21    53 1   
    47    22    23 1   
    48    22    29 1   
    49    23    24 1   
    50    23    55 1   
    51    24    25 1   
    52    24    56 1   
    53    25    26 1   
    54    25    28 1   
    55    26    27 1   
    56    28    29 1   
    57    28    57 1   
    58    29    58 1   
    59    30    31 1   
    60    30    59 1   
    61    30    60 1   
    62    31    32 1   
    63    31    35 1   
    64    31    59 1   
    65    32    33 1   
    66    32    61 1   
    67    33    34 1   
    68    34    35 1   
    69    34    62 1   
    70    35    36 1   
    71    36    63 1   
    72    36    64 1   
    73    36    65 1   
@<TRIPOS>SUBSTRUCTURE
     1 ED7         1 TEMP              0 ****  ****    0 ROOT
