@<TRIPOS>MOLECULE
ED8
   63    67     1     0     0
SMALL
bcc


@<TRIPOS>ATOM
      1 C01          0.0000     0.0000     0.0000 c3         1 ED8       0.191100
      2 N02          1.4690     0.0000     0.0000 n3         1 ED8      -0.535600
      3 C03          1.9940     0.0000     1.3710 c3         1 ED8       0.165300
      4 C04          3.5170     0.1450     1.3350 c3         1 ED8      -0.048400
      5 C05          4.1180    -1.0160     0.5390 c3         1 ED8       0.166100
      6 O06          5.5350    -0.8550     0.4530 os         1 ED8      -0.279900
      7 C07          6.2740    -1.9780     0.2570 ca         1 ED8       0.200100
      8 C08          7.6640    -1.9060     0.2760 ca         1 ED8      -0.132000
      9 C09          8.4210    -3.0250     0.0800 ca         1 ED8       0.024000
     10 C10          7.8010    -4.2580    -0.1410 ca         1 ED8       0.028400
     11 N11          8.2700    -5.5140    -0.3630 nc         1 ED8      -0.426100
     12 C12          7.2730    -6.3350    -0.5110 cd         1 ED8       0.225700
     13 N13          6.0920    -5.6610    -0.3970 na         1 ED8       0.415600
     14 C14          4.8150    -6.2080    -0.4990 cc         1 ED8       0.130700
     15 C15          4.3950    -7.0050    -1.5020 cd         1 ED8      -0.268000
     16 C16          3.0920    -7.4320    -1.3980 cd         1 ED8       0.341100
     17 O17          2.5070    -8.2400    -2.3200 os         1 ED8      -0.242900
     18 C18          3.3090    -8.6430    -3.4320 c3         1 ED8       0.233700
     19 C19          2.4970    -9.5290    -4.3410 ca         1 ED8      -0.066300
     20 C20          1.1850    -9.8250    -4.0270 ca         1 ED8      -0.099000
     21 C21          0.4390   -10.6390    -4.8610 ca         1 ED8      -0.054000
     22 C22          1.0080   -11.1540    -6.0100 ca         1 ED8      -0.088000
     23 C23          2.3210   -10.8570    -6.3260 ca         1 ED8      -0.029000
     24 C24          3.0640   -10.0410    -5.4940 ca         1 ED8      -0.199300
     25 C25          4.4940    -9.7130    -5.8400 c3         1 ED8       0.639200
     26 F26          4.6330    -8.3280    -5.9810 f          1 ED8      -0.204633
     27 F27          5.3360   -10.1650    -4.8200 f          1 ED8      -0.204633
     28 F28          4.8380   -10.3410    -7.0420 f          1 ED8      -0.204633
     29 C29          2.4330    -6.9730    -0.2850 cc         1 ED8      -0.296700
     30 C30          1.0910    -7.2670     0.0490 c          1 ED8       0.410700
     31 N31          0.5500    -6.7570     1.1740 nz         1 ED8       0.206600
     32 O32          0.4250    -7.9810    -0.6770 o          1 ED8      -0.466100
     33 S33          3.5200    -5.9680     0.6650 ss         1 ED8      -0.251800
     34 C34          6.3980    -4.3340    -0.1600 ca         1 ED8      -0.234200
     35 C35          5.6410    -3.1900     0.0450 ca         1 ED8      -0.232000
     36 C36          3.5180    -1.0220    -0.8700 c3         1 ED8      -0.048400
     37 C37          1.9950    -1.1340    -0.7700 c3         1 ED8       0.165300
     38 H01         -0.3610    -0.8990     0.4850 h1         1 ED8       0.001033
     39 H01A        -0.3610     0.8700     0.5360 h1         1 ED8       0.001033
     40 H01B        -0.3610     0.0290    -1.0210 h1         1 ED8       0.001033
     41 H03          1.5660     0.8300     1.9200 h1         1 ED8       0.003200
     42 H03A         1.7330    -0.9330     1.8560 h1         1 ED8       0.003200
     43 H04          3.7780     1.0820     0.8590 hc         1 ED8       0.037950
     44 H04A         3.9040     0.1270     2.3470 hc         1 ED8       0.037950
     45 H05          3.8850    -1.9510     1.0340 h1         1 ED8       0.007700
     46 H08          8.1500    -0.9530     0.4480 ha         1 ED8       0.133000
     47 H09          9.5020    -2.9580     0.0970 ha         1 ED8       0.125000
     48 H12          7.3660    -7.3980    -0.6990 h5         1 ED8       0.040800
     49 H15          5.0360    -7.2880    -2.3280 ha         1 ED8       0.175000
     50 H18          3.6350    -7.7670    -3.9780 h1         1 ED8       0.035700
     51 H18A         4.1740    -9.1880    -3.0740 h1         1 ED8       0.035700
     52 H20          0.7390    -9.4200    -3.1260 ha         1 ED8       0.123000
     53 H21         -0.5770   -10.9020    -4.5940 ha         1 ED8       0.113000
     54 H22          0.4250   -11.7910    -6.6650 ha         1 ED8       0.121000
     55 H23          2.7680   -11.2660    -7.2240 ha         1 ED8       0.132000
     56 HN31         0.5330    -5.7580     1.1130 hn         1 ED8       0.243800
     57 HN3A        -0.3840    -7.1000     1.2790 hn         1 ED8       0.243800
     58 H35          4.5650    -3.2630     0.1420 ha         1 ED8       0.128000
     59 H36          3.9060    -1.8680    -1.4230 hc         1 ED8       0.037950
     60 H36A         3.7790    -0.1010    -1.3770 hc         1 ED8       0.037950
     61 H37          1.5680    -1.1220    -1.7660 h1         1 ED8       0.003200
     62 H37A         1.7350    -2.0600    -0.2710 h1         1 ED8       0.003200
     63 H313         1.0980    -7.0350     1.9640 hn         1 ED8       0.243800
@<TRIPOS>BOND
     1     1     2 1   
     2     1    38 1   
     3     1    39 1   
     4     1    40 1   
     5     2     3 1   
     6     2    37 1   
     7     3     4 1   
     8     3    41 1   
     9     3    42 1   
    10     4     5 1   
    11     4    43 1   
    12     4    44 1   
    13     5     6 1   
    14     5    36 1   
    15     5    45 1   
    16     6     7 1   
    17     7     8 ar  
    18     7    35 ar  
    19     8     9 ar  
    20     8    46 1   
    21     9    10 ar  
    22     9    47 1   
    23    10    11 1   
    24    10    34 ar  
    25    11    12 2   
    26    12    13 1   
    27    12    48 1   
    28    13    14 1   
    29    13    34 1   
    30    14    15 2   
    31    14    33 1   
    32    15    16 1   
    33    15    49 1   
    34    16    17 1   
    35    16    29 2   
    36    17    18 1   
    37    18    19 1   
    38    18    50 1   
    39    18    51 1   
    40    19    20 ar  
    41    19    24 ar  
    42    20    21 ar  
    43    20    52 1   
    44    21    22 ar  
    45    21    53 1   
    46    22    23 ar  
    47    22    54 1   
    48    23    24 ar  
    49    23    55 1   
    50    24    25 1   
    51    25    26 1   
    52    25    27 1   
    53    25    28 1   
    54    29    30 1   
    55    29    33 1   
    56    30    31 1   
    57    30    32 2   
    58    31    56 1   
    59    31    57 1   
    60    31    63 1   
    61    34    35 ar  
    62    35    58 1   
    63    36    37 1   
    64    36    59 1   
    65    36    60 1   
    66    37    61 1   
    67    37    62 1   
@<TRIPOS>SUBSTRUCTURE
     1 ED8         1 TEMP              0 ****  ****    0 ROOT
