@<TRIPOS>MOLECULE
molecule
   85    87     1     0     0
SMALL
bcc


@<TRIPOS>ATOM
      1 O2           0.0000     0.0000     0.0000 oh         1 ED9      -0.599800
      2 O3          13.8840    -6.2640    -1.6280 oh         1 ED9      -0.603800
      3 C1           3.4600     1.1770    -0.8710 c3         1 ED9       0.164300
      4 C2           1.9370     1.2450    -0.7270 c3         1 ED9       0.130100
      5 C3           1.4290     0.0000     0.0000 c3         1 ED9       0.158100
      6 C4           1.9370     0.0000     1.4450 c3         1 ED9      -0.043200
      7 C5           3.4520     0.0550     1.4190 ce         1 ED9      -0.075200
      8 C6           4.2030    -0.7620     2.1840 cf         1 ED9      -0.125000
      9 C7           5.6650    -0.6780     2.1310 cf         1 ED9      -0.158000
     10 C8           6.4070    -1.4860     2.8870 c2         1 ED9      -0.096400
     11 C9           5.7940    -2.5190     3.8210 c3         1 ED9      -0.043200
     12 C10          4.0660     1.0510     0.5130 ce         1 ED9      -0.071200
     13 C11          6.4310    -3.8900     3.6030 c3         1 ED9      -0.078400
     14 C12          7.9670    -3.8100     3.5880 c3         1 ED9      -0.065400
     15 C13          8.3640    -2.8700     2.4740 c3         1 ED9      -0.060000
     16 C14          7.9060    -1.4450     2.8750 c3         1 ED9      -0.034500
     17 C15          8.5620    -0.6050     1.7760 c3         1 ED9      -0.078400
     18 C16          9.9730    -1.2450     1.6490 c3         1 ED9      -0.082400
     19 C17          9.8440    -2.6900     2.1740 c3         1 ED9      -0.054700
     20 C18          7.6450    -3.2810     1.1860 c3         1 ED9      -0.091100
     21 C19          5.1020     1.7980     0.8950 c2         1 ED9      -0.205000
     22 C20         10.2900    -3.6760     1.0920 c3         1 ED9      -0.072700
     23 C21         10.1850    -5.1050     1.6300 c3         1 ED9      -0.095100
     24 C22         11.7400    -3.3830     0.7020 c3         1 ED9      -0.082400
     25 C23         12.1480    -4.2860    -0.4640 c3         1 ED9      -0.082400
     26 C24         13.5980    -3.9930    -0.8540 c3         1 ED9      -0.066400
     27 C25         14.0050    -4.8950    -2.0200 c3         1 ED9       0.146800
     28 C26         15.4550    -4.6010    -2.4100 c3         1 ED9      -0.120100
     29 C27         13.0910    -4.6260    -3.2170 c3         1 ED9      -0.120100
     30 O1           3.8200     0.0400    -1.6600 oh         1 ED9      -0.594800
     31 O4           1.5820     2.4100     0.0190 os         1 ED9      -0.400600
     32 C28          1.3640     3.5720    -0.7840 c3         1 ED9       0.137400
     33 C29          0.9910     4.7520     0.1160 c3         1 ED9      -0.081400
     34 C30          0.7580     5.9960    -0.7440 c3         1 ED9       0.142400
     35 O5           0.4110     7.0970     0.0970 oh         1 ED9      -0.606800
     36 H1          -0.3140    -0.8240    -0.3320 ho         1 ED9       0.398000
     37 H2          14.4290    -6.7990    -2.1810 ho         1 ED9       0.401000
     38 H3           3.8210     2.0830    -1.3430 h1         1 ED9       0.039700
     39 H4           1.4870     1.2920    -1.7120 h1         1 ED9       0.043700
     40 H5           1.7930    -0.8850    -0.5080 h1         1 ED9       0.057700
     41 H6           1.6150    -0.9060     1.9440 hc         1 ED9       0.065200
     42 H7           1.5510     0.8670     1.9670 hc         1 ED9       0.065200
     43 H8           3.7260    -1.4810     2.8390 ha         1 ED9       0.133000
     44 H9           6.1420     0.0440     1.4790 ha         1 ED9       0.146000
     45 H10          5.9570    -2.2110     4.8470 hc         1 ED9       0.048700
     46 H11          4.7310    -2.5860     3.6280 hc         1 ED9       0.048700
     47 H12          6.0900    -4.2890     2.6550 hc         1 ED9       0.042700
     48 H13          6.1220    -4.5530     4.4020 hc         1 ED9       0.042700
     49 H14          8.3230    -3.4250     4.5360 hc         1 ED9       0.044700
     50 H15          8.3830    -4.7930     3.4040 hc         1 ED9       0.044700
     51 H16          8.2950    -1.1780     3.8500 hc         1 ED9       0.065700
     52 H17          8.6390     0.4310     2.0820 hc         1 ED9       0.047200
     53 H18          8.0140    -0.6980     0.8450 hc         1 ED9       0.047200
     54 H19         10.6850    -0.6950     2.2510 hc         1 ED9       0.043700
     55 H20         10.2830    -1.2550     0.6110 hc         1 ED9       0.043700
     56 H21         10.4290    -2.8170     3.0760 hc         1 ED9       0.054700
     57 H22          6.6150    -2.9500     1.2260 hc         1 ED9       0.040367
     58 H23          8.1390    -2.8260     0.3360 hc         1 ED9       0.040367
     59 H24          7.6740    -4.3590     1.0850 hc         1 ED9       0.040367
     60 H25          5.5140     1.6840     1.8900 ha         1 ED9       0.122000
     61 H26          5.5330     2.5180     0.2090 ha         1 ED9       0.122000
     62 H27          9.6530    -3.5710     0.2220 hc         1 ED9       0.060700
     63 H28         11.0590    -5.6690     1.3270 hc         1 ED9       0.036700
     64 H29          9.2950    -5.5770     1.2310 hc         1 ED9       0.036700
     65 H30         10.1280    -5.0800     2.7110 hc         1 ED9       0.036700
     66 H31         11.8310    -2.3460     0.4040 hc         1 ED9       0.040700
     67 H32         12.3870    -3.5730     1.5490 hc         1 ED9       0.040700
     68 H33         12.0570    -5.3230    -0.1660 hc         1 ED9       0.052200
     69 H34         14.2450    -4.1830    -0.0070 hc         1 ED9       0.047200
     70 H35         15.7370    -5.2280    -3.2480 hc         1 ED9       0.041533
     71 H36         16.1040    -4.8090    -1.5690 hc         1 ED9       0.041533
     72 H37         15.5490    -3.5590    -2.6910 hc         1 ED9       0.041533
     73 H38         13.5800    -4.9540    -4.1260 hc         1 ED9       0.041533
     74 H39         12.8830    -3.5650    -3.2810 hc         1 ED9       0.041533
     75 H40         12.1620    -5.1690    -3.0910 hc         1 ED9       0.041533
     76 H41          4.1490     0.3290    -2.4950 ho         1 ED9       0.401000
     77 H42          0.5580     3.3820    -1.4830 h1         1 ED9       0.020200
     78 H43          2.2690     3.8070    -1.3310 h1         1 ED9       0.020200
     79 H44          1.7970     4.9420     0.8150 hc         1 ED9       0.068700
     80 H45          0.0870     4.5170     0.6640 hc         1 ED9       0.068700
     81 H46         -0.0480     5.8060    -1.4430 h1         1 ED9       0.018200
     82 H47          1.6630     6.2310    -1.2920 h1         1 ED9       0.018200
     83 H48          0.1690     7.8360    -0.4370 ho         1 ED9       0.403000
     84 H49         11.5000    -4.0960    -1.3110 hc         1 ED9       0.052200
     85 H50         13.6890    -2.9550    -1.1520 hc         1 ED9       0.047200
@<TRIPOS>BOND
     1    13    11 1
     2    13    14 1
     3    11    10 1
     4    14    15 1
     5    28    27 1
     6     6     5 1
     7     6     7 1
     8     5     4 1
     9     5     1 1
    10     8     7 2
    11     8     9 1
    12     7    12 1
    13    20    15 1
    14    10     9 2
    15    10    16 1
    16    15    16 1
    17    15    19 1
    18    27    29 1
    19    27    26 1
    20    27     2 1
    21    32    33 1
    22    32    31 1
    23    25    26 1
    24    25    24 1
    25    33    34 1
    26     4    31 1
    27     4     3 1
    28    22    19 1
    29    22    24 1
    30    22    23 1
    31    12    21 2
    32    12     3 1
    33    16    17 1
    34    19    18 1
    35    34    35 1
    36     3    30 1
    37    17    18 1
    38     1    36 1
    39     2    37 1
    40     3    38 1
    41     4    39 1
    42     5    40 1
    43     6    41 1
    44     6    42 1
    45     8    43 1
    46     9    44 1
    47    11    45 1
    48    11    46 1
    49    13    47 1
    50    13    48 1
    51    14    49 1
    52    14    50 1
    53    16    51 1
    54    17    52 1
    55    17    53 1
    56    18    54 1
    57    18    55 1
    58    19    56 1
    59    20    57 1
    60    20    58 1
    61    20    59 1
    62    21    60 1
    63    21    61 1
    64    22    62 1
    65    23    63 1
    66    23    64 1
    67    23    65 1
    68    24    66 1
    69    24    67 1
    70    25    68 1
    71    26    69 1
    72    28    70 1
    73    28    71 1
    74    28    72 1
    75    29    73 1
    76    29    74 1
    77    29    75 1
    78    30    76 1
    79    32    77 1
    80    32    78 1
    81    33    79 1
    82    33    80 1
    83    34    81 1
    84    34    82 1
    85    35    83 1
    86    25    84 1
    87    26    85 1
@<TRIPOS>SUBSTRUCTURE
     1 ED9         1 TEMP              0 ****  ****    0 ROOT
