@<TRIPOS>MOLECULE
ED9
   85    87     1     0     0
SMALL
bcc


@<TRIPOS>ATOM
      1 O2         -0.2680    0.4140    0.3810 oh        1 ED9     -0.594800
      2 O3         14.6930   -6.3690   -1.0960 oh        1 ED9     -0.597800
      3 C1          3.1190    1.7230   -0.7260 c3        1 ED9      0.163300
      4 C2          1.5870    1.6540   -0.5770 c3        1 ED9      0.078100
      5 C3          1.1330    0.3990    0.1870 c3        1 ED9      0.150100
      6 C4          1.8660    0.2620    1.5170 c3        1 ED9     -0.072200
      7 C5          3.3430    0.2510    1.3120 ce        1 ED9     -0.089200
      8 C6          4.1060   -0.7320    1.8330 cf        1 ED9     -0.108000
      9 C7          5.5370   -0.8410    1.6690 cf        1 ED9     -0.159000
     10 C8          6.3610   -1.5860    2.4250 c2        1 ED9     -0.070400
     11 C9          5.9510   -2.3670    3.6320 c3        1 ED9     -0.046200
     12 C10         3.8570    1.3820    0.5410 ce        1 ED9     -0.112200
     13 C11         6.5380   -3.7680    3.6830 c3        1 ED9     -0.073400
     14 C12         8.0170   -3.8350    3.3450 c3        1 ED9     -0.067400
     15 C13         8.3040   -3.1250    2.0310 c3        1 ED9     -0.039000
     16 C14         7.8300   -1.6540    2.2020 c3        1 ED9     -0.039500
     17 C15         8.4810   -0.9230    1.0380 c3        1 ED9     -0.074400
     18 C16         9.8180   -1.6390    0.8370 c3        1 ED9     -0.078400
     19 C17         9.8000   -2.9220    1.6930 c3        1 ED9     -0.053700
     20 C18         7.5780   -3.8040    0.8820 c3        1 ED9     -0.083100
     21 C19         4.9120    2.1090    0.9320 c2        1 ED9     -0.176000
     22 C20        10.5090   -4.0800    0.9990 c3        1 ED9     -0.054700
     23 C21        10.4630   -5.3480    1.8310 c3        1 ED9     -0.092100
     24 C22        11.9660   -3.7140    0.7170 c3        1 ED9     -0.079400
     25 C23        12.5490   -4.5400   -0.4110 c3        1 ED9     -0.079400
     26 C24        13.9860   -4.1490   -0.6780 c3        1 ED9     -0.064400
     27 C25        14.6780   -5.0690   -1.6890 c3        1 ED9      0.147800
     28 C26        16.1100   -4.5930   -1.9150 c3        1 ED9     -0.123100
     29 C27        13.9320   -5.1110   -3.0170 c3        1 ED9     -0.123100
     30 O1          3.5180    0.8910   -1.8050 oh        1 ED9     -0.591800
     31 O4          1.1000    2.7730    0.1640 os        1 ED9     -0.423600
     32 C28         0.8210    3.9100   -0.6540 c3        1 ED9      0.131400
     33 C29         0.3760    5.0130    0.2880 c3        1 ED9     -0.089400
     34 C30         0.0380    6.2620   -0.5060 c3        1 ED9      0.133400
     35 O5         -0.3610    7.2500    0.4300 oh        1 ED9     -0.597800
     36 H1         -0.4780    1.2220    0.8690 ho        1 ED9      0.415000
     37 H2         15.1270   -6.9550   -1.7250 ho        1 ED9      0.397000
     38 H3          3.4000    2.7620   -1.0690 h1        1 ED9      0.078700
     39 H4          1.1290    1.6370   -1.6070 h1        1 ED9      0.066700
     40 H5          1.3180   -0.5040   -0.4620 h1        1 ED9      0.076700
     41 H6          1.5940    1.1340    2.1720 hc        1 ED9      0.064700
     42 H7          1.5170   -0.6720    2.0300 hc        1 ED9      0.064700
     43 H8          3.6120   -1.5360    2.4100 ha        1 ED9      0.126000
     44 H9          5.9590   -0.2490    0.8350 ha        1 ED9      0.133000
     45 H10         4.8340   -2.4490    3.6990 hc        1 ED9      0.047700
     46 H11         6.2930   -1.7930    4.5380 hc        1 ED9      0.047700
     47 H12         6.3820   -4.1820    4.7140 hc        1 ED9      0.041200
     48 H13         5.9720   -4.4270    2.9730 hc        1 ED9      0.041200
     49 H14         8.3290   -4.9100    3.2850 hc        1 ED9      0.043200
     50 H15         8.6160   -3.3580    4.1650 hc        1 ED9      0.043200
     51 H16         8.3080   -1.2550    3.1480 hc        1 ED9      0.055700
     52 H17         7.8550   -0.9990    0.1140 hc        1 ED9      0.045200
     53 H18         8.6250    0.1610    1.2660 hc        1 ED9      0.045200
     54 H19        10.6650   -0.9810    1.1510 hc        1 ED9      0.042200
     55 H20         9.9600   -1.8890   -0.2440 hc        1 ED9      0.042200
     56 H21        10.3420   -2.7190    2.6580 hc        1 ED9      0.046700
     57 H22         7.8060   -4.8960    0.8670 hc        1 ED9      0.037367
     58 H23         7.8930   -3.3580   -0.0930 hc        1 ED9      0.037367
     59 H24         6.4730   -3.6720    0.9850 hc        1 ED9      0.037367
     60 H25         5.2800    2.9660    0.3530 ha        1 ED9      0.120500
     61 H26         5.4620    1.8900    1.8570 ha        1 ED9      0.120500
     62 H27         9.9950   -4.2770    0.0160 hc        1 ED9      0.050700
     63 H28        10.7100   -5.1280    2.8980 hc        1 ED9      0.035033
     64 H29        11.2000   -6.0940    1.4460 hc        1 ED9      0.035033
     65 H30         9.4490   -5.8130    1.7880 hc        1 ED9      0.035033
     66 H31        12.0470   -2.6290    0.4450 hc        1 ED9      0.040200
     67 H32        12.5710   -3.8650    1.6490 hc        1 ED9      0.040200
     68 H33        12.5090   -5.6320   -0.1570 hc        1 ED9      0.048700
     69 H34        14.0330   -3.1000   -1.0700 hc        1 ED9      0.047200
     70 H35        16.6370   -5.2740   -2.6250 hc        1 ED9      0.042367
     71 H36        16.6670   -4.5890   -0.9480 hc        1 ED9      0.042367
     72 H37        16.1080   -3.5620   -2.3390 hc        1 ED9      0.042367
     73 H38        13.7440   -4.0750   -3.3830 hc        1 ED9      0.042367
     74 H39        12.9550   -5.6360   -2.8890 hc        1 ED9      0.042367
     75 H40        14.5320   -5.6600   -3.7810 hc        1 ED9      0.042367
     76 H41         3.4480   -0.0240   -1.5050 ho        1 ED9      0.406000
     77 H42         0.0100    3.6520   -1.3870 h1        1 ED9      0.030700
     78 H43         1.7430    4.2100   -1.2180 h1        1 ED9      0.030700
     79 H44         1.1870    5.2390    1.0270 hc        1 ED9      0.069700
     80 H45        -0.5210    4.6810    0.8730 hc        1 ED9      0.069700
     81 H46        -0.7980    6.0590   -1.2290 h1        1 ED9      0.021200
     82 H47         0.9340    6.6200   -1.0820 h1        1 ED9      0.021200
     83 H48        -0.5830    8.0380   -0.0800 ho        1 ED9      0.401000
     84 H49        11.9380   -4.3900   -1.3390 hc        1 ED9      0.048700
     85 H50        14.5660   -4.1860    0.2820 hc        1 ED9      0.047200
@<TRIPOS>BOND
     1    1    5 1   
     2    1   36 1   
     3    2   27 1   
     4    2   37 1   
     5    3    4 1   
     6    3   12 1   
     7    3   30 1   
     8    3   38 1   
     9    4    5 1   
    10    4   31 1   
    11    4   39 1   
    12    5    6 1   
    13    5   40 1   
    14    6    7 1   
    15    6   41 1   
    16    6   42 1   
    17    7    8 2   
    18    7   12 1   
    19    8    9 1   
    20    8   43 1   
    21    9   10 2   
    22    9   44 1   
    23   10   11 1   
    24   10   16 1   
    25   11   13 1   
    26   11   45 1   
    27   11   46 1   
    28   12   21 2   
    29   13   14 1   
    30   13   47 1   
    31   13   48 1   
    32   14   15 1   
    33   14   49 1   
    34   14   50 1   
    35   15   16 1   
    36   15   19 1   
    37   15   20 1   
    38   16   17 1   
    39   16   51 1   
    40   17   18 1   
    41   17   52 1   
    42   17   53 1   
    43   18   19 1   
    44   18   54 1   
    45   18   55 1   
    46   19   22 1   
    47   19   56 1   
    48   20   57 1   
    49   20   58 1   
    50   20   59 1   
    51   21   60 1   
    52   21   61 1   
    53   22   23 1   
    54   22   24 1   
    55   22   62 1   
    56   23   63 1   
    57   23   64 1   
    58   23   65 1   
    59   24   25 1   
    60   24   66 1   
    61   24   67 1   
    62   25   26 1   
    63   25   68 1   
    64   25   84 1   
    65   26   27 1   
    66   26   69 1   
    67   26   85 1   
    68   27   28 1   
    69   27   29 1   
    70   28   70 1   
    71   28   71 1   
    72   28   72 1   
    73   29   73 1   
    74   29   74 1   
    75   29   75 1   
    76   30   76 1   
    77   31   32 1   
    78   32   33 1   
    79   32   77 1   
    80   32   78 1   
    81   33   34 1   
    82   33   79 1   
    83   33   80 1   
    84   34   35 1   
    85   34   81 1   
    86   34   82 1   
    87   35   83 1   
@<TRIPOS>SUBSTRUCTURE
     1 ED9         1 TEMP              0 ****  ****    0 ROOT
