@<TRIPOS>MOLECULE
molecule
   50    53     1     0     0
SMALL
bcc


@<TRIPOS>ATOM
      1 C1           0.0000     0.0000     0.0000 ca         1 EDB      -0.138000
      2 C2           1.3810     0.0000     0.0000 ca         1 EDB      -0.101000
      3 C3           2.0740     0.0000     1.1970 ca         1 EDB      -0.136000
      4 C4           1.3880     0.0000     2.3980 ca         1 EDB       0.050400
      5 C5           0.0050     0.0010     2.4040 ca         1 EDB      -0.015600
      6 C6          -0.6940     0.0010     1.2030 ca         1 EDB       0.085600
      7 C13         -5.2150    -2.3300    -2.6800 cc         1 EDB       0.241800
      8 C14         -4.1920    -1.8620    -1.8790 cd         1 EDB      -0.342600
      9 C15         -4.7640    -1.1730    -0.8020 cd         1 EDB       0.785500
     10 N16         -6.1330    -1.2240    -0.9500 na         1 EDB      -0.347800
     11 N17         -6.4120    -1.9440    -2.1180 na         1 EDB      -0.521800
     12 C23         -7.0750    -0.6580    -0.0860 ca         1 EDB       0.196600
     13 C24         -8.4320    -0.7860    -0.3560 ca         1 EDB      -0.165000
     14 C25         -9.3610    -0.2240     0.4990 ca         1 EDB      -0.104300
     15 C26         -8.9400     0.4630     1.6230 ca         1 EDB      -0.129000
     16 C27         -7.5900     0.5920     1.8950 ca         1 EDB      -0.084000
     17 C28         -6.6570     0.0290     1.0470 ca         1 EDB      -0.110000
     18 N36         -4.1020    -0.5750     0.1890 ne         1 EDB      -0.838100
     19 C38         -2.7690    -0.5030     0.1540 c          1 EDB       0.838500
     20 O40         -2.1630    -0.8930    -0.8300 o          1 EDB      -0.671100
     21 N42         -2.0930     0.0010     1.2060 ns         1 EDB      -0.449100
     22 C45         -5.2670    -4.3970    -6.0230 cc         1 EDB      -0.064100
     23 S46         -6.3670    -3.6900    -4.9270 ss         1 EDB      -0.125800
     24 C47         -5.0550    -3.1000    -3.9150 cc         1 EDB      -0.054900
     25 C48         -3.8620    -3.4740    -4.4690 cd         1 EDB      -0.072000
     26 C49         -4.0030    -4.1910    -5.6340 cd         1 EDB      -0.161000
     27 C56        -10.8330    -0.3620     0.2070 c3         1 EDB      -0.093100
     28 C58        -11.3600    -1.6140     0.8600 c          1 EDB       0.464100
     29 O60        -10.6130    -2.3240     1.4990 o          1 EDB      -0.372100
     30 N62        -12.6600    -1.9430     0.7330 nz         1 EDB      -0.686400
     31 Cl64        -0.8580    -0.0010     3.9110 cl         1 EDB      -0.098400
     32 Cl66         2.2620    -0.0000     3.8980 cl         1 EDB      -0.083400
     33 H1          -0.5420     0.0000    -0.9380 ha         1 EDB       0.192000
     34 H2           1.9220    -0.0000    -0.9390 ha         1 EDB       0.145000
     35 H3           3.1580    -0.0000     1.1930 ha         1 EDB       0.151000
     36 HN17        -7.3230    -2.1440    -2.4820 hn         1 EDB       0.488800
     37 H24         -8.7610    -1.3240    -1.2360 ha         1 EDB       0.118000
     38 H26         -9.6700     0.9040     2.2910 ha         1 EDB       0.131000
     39 H27         -7.2650     1.1300     2.7770 ha         1 EDB       0.160000
     40 H28         -5.6000     0.1310     1.2610 ha         1 EDB       0.219000
     41 HN42        -2.5920     0.4130     1.9700 hn         1 EDB       0.338500
     42 H48         -2.9000    -3.2310    -4.0330 ha         1 EDB       0.177000
     43 H49         -3.1540    -4.5610    -6.1960 ha         1 EDB       0.168000
     44 H56        -10.9840    -0.4220    -0.8640 hc         1 EDB       0.095200
     45 H56A       -11.3610     0.4990     0.5990 hc         1 EDB       0.095200
     46 HN62       -12.8370    -2.7980     1.2230 hn         1 EDB       0.476800
     47 HN6A       -13.2280    -1.2140     1.1170 hn         1 EDB       0.476800
     48 H14         -3.3040    -2.4640    -1.7270 ha         1 EDB       0.207000
     49 H623       -12.8760    -2.0820    -0.2350 hn         1 EDB       0.476800
     50 H45         -5.5540    -4.9410    -6.9150 h4         1 EDB       0.184000
@<TRIPOS>BOND
     1     1     2 ar
     2     1     6 ar
     3     2     3 ar
     4     3     4 ar
     5     4     5 ar
     6     4    32 1
     7     5     6 ar
     8     5    31 1
     9     6    21 1
    10     7     8 2
    11     7    11 1
    12     7    24 1
    13     8     9 1
    14     9    10 1
    15     9    18 2
    16    10    11 1
    17    10    12 1
    18    12    13 ar
    19    12    17 ar
    20    13    14 ar
    21    14    15 ar
    22    14    27 1
    23    15    16 ar
    24    16    17 ar
    25    18    19 1
    26    19    20 2
    27    19    21 1
    28    22    23 1
    29    22    26 2
    30    23    24 1
    31    24    25 2
    32    25    26 1
    33    27    28 1
    34    28    29 2
    35    28    30 1
    36     1    33 1
    37     2    34 1
    38     3    35 1
    39     8    48 1
    40    11    36 1
    41    13    37 1
    42    15    38 1
    43    16    39 1
    44    17    40 1
    45    21    41 1
    46    22    50 1
    47    25    42 1
    48    26    43 1
    49    27    44 1
    50    27    45 1
    51    30    46 1
    52    30    47 1
    53    49    30 1
@<TRIPOS>SUBSTRUCTURE
     1 EDB         1 TEMP              0 ****  ****    0 ROOT
