@<TRIPOS>MOLECULE
EDD
   55    57     1     0     0
SMALL
bcc


@<TRIPOS>ATOM
      1 C1           0.0000     0.0000     0.0000 ca         1 EDD       0.040600
      2 C2           1.3890     0.0000     0.0000 ca         1 EDD      -0.122000
      3 C3           2.0780     0.0000     1.1970 ca         1 EDD      -0.048000
      4 C4           1.3870     0.0010     2.3940 ca         1 EDD      -0.100000
      5 C5           0.0050     0.0010     2.3980 ca         1 EDD      -0.113300
      6 C6          -0.6910     0.0010     1.2050 ca         1 EDD      -0.114000
      7 C13         -0.7450     0.0020     3.7060 c3         1 EDD      -0.010100
      8 C14         -0.9940     1.4230     4.1410 c          1 EDD       0.300100
      9 N15         -1.6530     1.6690     5.2910 nz         1 EDD       0.194600
     10 O19         -0.6030     2.3440     3.4580 o          1 EDD      -0.378100
     11 N21         -0.7010     0.0060    -1.2090 na         1 EDD      -0.037800
     12 N23         -0.1420     0.0120    -2.4950 na         1 EDD      -0.186800
     13 C24         -1.1580     0.0160    -3.4040 cc         1 EDD       0.002800
     14 C25         -2.3370     0.0130    -2.7460 cd         1 EDD      -0.356600
     15 C26         -2.0680     0.0010    -1.3600 cd         1 EDD       0.604500
     16 C32         -0.9930     0.0230    -4.9030 c3         1 EDD      -0.000800
     17 C34         -2.3700     0.0260    -5.5680 c3         1 EDD       0.004900
     18 C36         -0.2200     1.2740    -5.3240 c3         1 EDD       0.004900
     19 C38         -0.2200    -1.2240    -5.3360 c3         1 EDD       0.004900
     20 N40         -2.9690    -0.0120    -0.3820 ne         1 EDD      -0.786100
     21 C42         -4.2750    -0.0150    -0.6760 c          1 EDD       0.708500
     22 N43         -5.1890    -0.0270     0.3150 ns         1 EDD      -0.020100
     23 C44         -6.5510     0.0640     0.0120 ca         1 EDD      -0.067400
     24 O48         -4.6380    -0.0070    -1.8390 o          1 EDD      -0.701100
     25 C50         -7.0470    -0.5250    -1.1430 ca         1 EDD      -0.098000
     26 C51         -8.3940    -0.4350    -1.4410 ca         1 EDD      -0.062000
     27 C52         -9.2470     0.2420    -0.5900 ca         1 EDD      -0.102000
     28 C53         -8.7570     0.8320     0.5620 ca         1 EDD      -0.021600
     29 C54         -7.4110     0.7400     0.8680 ca         1 EDD      -0.066600
     30 Cl61        -6.7970     1.4730     2.3170 cl         1 EDD      -0.053400
     31 Cl63        -9.8330     1.6830     1.6270 cl         1 EDD      -0.001400
     32 H2           1.9310    -0.0010    -0.9380 ha         1 EDD       0.112000
     33 H3           3.1610    -0.0000     1.1970 ha         1 EDD       0.119000
     34 H4           1.9300     0.0010     3.3320 ha         1 EDD       0.104000
     35 H6          -1.7740     0.0010     1.2090 ha         1 EDD       0.177000
     36 H13         -0.1560    -0.5080     4.4600 hc         1 EDD       0.057700
     37 H13A        -1.6910    -0.5090     3.5810 hc         1 EDD       0.057700
     38 HN15        -1.9970     2.6090     5.2830 hn         1 EDD       0.246467
     39 HN1A        -2.4210     1.0340     5.3790 hn         1 EDD       0.246467
     40 HN23         0.8360     0.0130    -2.7090 hn         1 EDD       0.335800
     41 H25         -3.1730     0.5840    -3.1310 ha         1 EDD       0.200000
     42 H34         -2.9320    -0.8400    -5.2400 hc         1 EDD       0.014256
     43 H34A        -2.2520    -0.0070    -6.6450 hc         1 EDD       0.014256
     44 H34B        -2.9030     0.9280    -5.2920 hc         1 EDD       0.014256
     45 H36         -0.2510     1.3710    -6.4020 hc         1 EDD       0.014256
     46 H36A         0.8100     1.1890    -4.9990 hc         1 EDD       0.014256
     47 H36B        -0.6710     2.1470    -4.8690 hc         1 EDD       0.014256
     48 H38          0.8070    -1.1470    -5.0010 hc         1 EDD       0.014256
     49 H38A        -0.6780    -2.1030    -4.8980 hc         1 EDD       0.014256
     50 H38B        -0.2430    -1.3060    -6.4160 hc         1 EDD       0.014256
     51 HN43        -4.8940    -0.1400     1.2650 hn         1 EDD       0.156500
     52 H50         -6.3800    -1.0560    -1.8110 ha         1 EDD       0.157000
     53 H51         -8.7810    -0.8950    -2.3420 ha         1 EDD       0.114000
     54 H52        -10.3020     0.3140    -0.8270 ha         1 EDD       0.122000
     55 H153        -1.0300     1.5470     6.0650 hn         1 EDD       0.246467
@<TRIPOS>BOND
     1     1     2 ar  
     2     1     6 ar  
     3     1    11 1   
     4     2     3 ar  
     5     2    32 1   
     6     3     4 ar  
     7     3    33 1   
     8     4     5 ar  
     9     4    34 1   
    10     5     6 ar  
    11     5     7 1   
    12     6    35 1   
    13     7     8 1   
    14     7    36 1   
    15     7    37 1   
    16     8     9 1   
    17     8    10 2   
    18     9    38 1   
    19     9    39 1   
    20     9    55 1   
    21    11    12 1   
    22    11    15 1   
    23    12    13 1   
    24    12    40 1   
    25    13    14 2   
    26    13    16 1   
    27    14    15 1   
    28    14    41 1   
    29    15    20 2   
    30    16    17 1   
    31    16    18 1   
    32    16    19 1   
    33    17    42 1   
    34    17    43 1   
    35    17    44 1   
    36    18    45 1   
    37    18    46 1   
    38    18    47 1   
    39    19    48 1   
    40    19    49 1   
    41    19    50 1   
    42    20    21 1   
    43    21    22 1   
    44    21    24 2   
    45    22    23 1   
    46    22    51 1   
    47    23    25 ar  
    48    23    29 ar  
    49    25    26 ar  
    50    25    52 1   
    51    26    27 ar  
    52    26    53 1   
    53    27    28 ar  
    54    27    54 1   
    55    28    29 ar  
    56    28    31 1   
    57    29    30 1   
@<TRIPOS>SUBSTRUCTURE
     1 EDD         1 TEMP              0 ****  ****    0 ROOT
