@<TRIPOS>MOLECULE
molecule
   55    57     1     0     0
SMALL
bcc


@<TRIPOS>ATOM
      1 C1           0.0000     0.0000     0.0000 ca         1 EDD       0.191600
      2 C2           1.3890     0.0000     0.0000 ca         1 EDD      -0.145000
      3 C3           2.0780     0.0000     1.1970 ca         1 EDD      -0.085000
      4 C4           1.3870     0.0010     2.3940 ca         1 EDD      -0.130000
      5 C5           0.0050     0.0010     2.3980 ca         1 EDD      -0.102300
      6 C6          -0.6910     0.0010     1.2050 ca         1 EDD      -0.126000
      7 C13         -0.7450     0.0020     3.7060 c3         1 EDD      -0.093100
      8 C14         -0.9940     1.4230     4.1410 c          1 EDD       0.470100
      9 N15         -1.6530     1.6690     5.2910 nz         1 EDD      -0.686400
     10 O19         -0.6030     2.3440     3.4580 o          1 EDD      -0.374100
     11 N21         -0.7010     0.0060    -1.2090 na         1 EDD      -0.346800
     12 N23         -0.1420     0.0120    -2.4950 na         1 EDD      -0.503800
     13 C24         -1.1580     0.0160    -3.4040 cc         1 EDD       0.162800
     14 C25         -2.3370     0.0130    -2.7460 cd         1 EDD      -0.376600
     15 C26         -2.0680     0.0010    -1.3600 cd         1 EDD       0.788500
     16 C32         -0.9930     0.0230    -4.9030 c3         1 EDD      -0.016800
     17 C34         -2.3700     0.0260    -5.5680 c3         1 EDD      -0.085100
     18 C36         -0.2200     1.2740    -5.3240 c3         1 EDD      -0.085100
     19 C38         -0.2200    -1.2240    -5.3360 c3         1 EDD      -0.085100
     20 N40         -2.9690    -0.0120    -0.3820 ne         1 EDD      -0.866100
     21 C42         -4.2750    -0.0150    -0.6760 c          1 EDD       0.838500
     22 N43         -5.1890    -0.0270     0.3150 ns         1 EDD      -0.462100
     23 C44         -6.5510     0.0640     0.0120 ca         1 EDD       0.086600
     24 O48         -4.6380    -0.0070    -1.8390 o          1 EDD      -0.663100
     25 C50         -7.0470    -0.5250    -1.1430 ca         1 EDD      -0.119000
     26 C51         -8.3940    -0.4350    -1.4410 ca         1 EDD      -0.097000
     27 C52         -9.2470     0.2420    -0.5900 ca         1 EDD      -0.129000
     28 C53         -8.7570     0.8320     0.5620 ca         1 EDD       0.049400
     29 C54         -7.4110     0.7400     0.8680 ca         1 EDD      -0.010600
     30 Cl61        -6.7970     1.4730     2.3170 cl         1 EDD      -0.127400
     31 Cl63        -9.8330     1.6830     1.6270 cl         1 EDD      -0.082400
     32 H2           1.9310    -0.0010    -0.9380 ha         1 EDD       0.140000
     33 H3           3.1610    -0.0000     1.1970 ha         1 EDD       0.154000
     34 H4           1.9300     0.0010     3.3320 ha         1 EDD       0.131000
     35 H6          -1.7740     0.0010     1.2090 ha         1 EDD       0.200000
     36 H13         -0.1560    -0.5080     4.4600 hc         1 EDD       0.098200
     37 H13A        -1.6910    -0.5100     3.5810 hc         1 EDD       0.098200
     38 HN15        -1.9980     2.6090     5.2830 hn         1 EDD       0.477133
     39 HN1A        -1.0300     1.5500     6.0650 hn         1 EDD       0.477133
     40 HN23         0.8360     0.0130    -2.7090 hn         1 EDD       0.497800
     41 H25         -3.1730     0.5840    -3.1310 ha         1 EDD       0.215000
     42 H34         -2.9320    -0.8400    -5.2400 hc         1 EDD       0.048367
     43 H34A        -2.2520    -0.0080    -6.6450 hc         1 EDD       0.048367
     44 H34B        -2.9030     0.9280    -5.2920 hc         1 EDD       0.048367
     45 H36         -0.6690     2.1470    -4.8670 hc         1 EDD       0.048367
     46 H36A         0.8110     1.1870    -5.0010 hc         1 EDD       0.048367
     47 H36B        -0.2530     1.3730    -6.4020 hc         1 EDD       0.048367
     48 H38         -0.6790    -2.1030    -4.8990 hc         1 EDD       0.048367
     49 H38A         0.8070    -1.1480    -5.0000 hc         1 EDD       0.048367
     50 H38B        -0.2420    -1.3050    -6.4160 hc         1 EDD       0.048367
     51 HN43        -4.8930    -0.1130     1.2680 hn         1 EDD       0.321500
     52 H50         -6.3800    -1.0560    -1.8110 ha         1 EDD       0.182000
     53 H51         -8.7810    -0.8950    -2.3420 ha         1 EDD       0.150000
     54 H52        -10.3020     0.3140    -0.8270 ha         1 EDD       0.155000
     55 H153        -2.4210     1.0340     5.3790 hn         1 EDD       0.477133
@<TRIPOS>BOND
     1     1     2 ar
     2     1     6 ar
     3     1    11 1
     4     2     3 ar
     5     3     4 ar
     6     4     5 ar
     7     5     6 ar
     8     5     7 1
     9     7     8 1
    10     8     9 1
    11     8    10 2
    12    11    12 1
    13    11    15 1
    14    12    13 1
    15    13    14 2
    16    13    16 1
    17    14    15 1
    18    15    20 2
    19    16    17 1
    20    16    18 1
    21    16    19 1
    22    20    21 1
    23    21    22 1
    24    21    24 2
    25    22    23 1
    26    23    25 ar
    27    23    29 ar
    28    25    26 ar
    29    26    27 ar
    30    27    28 ar
    31    28    29 ar
    32    28    31 1
    33    29    30 1
    34     2    32 1
    35     3    33 1
    36     4    34 1
    37     6    35 1
    38     7    36 1
    39     7    37 1
    40     9    38 1
    41     9    39 1
    42    12    40 1
    43    14    41 1
    44    17    42 1
    45    17    43 1
    46    17    44 1
    47    18    45 1
    48    18    46 1
    49    18    47 1
    50    19    48 1
    51    19    49 1
    52    19    50 1
    53    22    51 1
    54    25    52 1
    55    26    53 1
    56    27    54 1
    57    55     9 1
@<TRIPOS>SUBSTRUCTURE
     1 EDD         1 TEMP              0 ****  ****    0 ROOT
