@<TRIPOS>MOLECULE
EDG
   20    20     1     0     0
SMALL
bcc


@<TRIPOS>ATOM
      1 O2'          0.0000     0.0000     0.0000 oh         1 EDG      -0.573800
      2 C2'          1.4280     0.0000     0.0000 c3         1 EDG       0.161100
      3 C1'          1.9650     0.0000     1.4480 c3         1 EDG       0.121800
      4 N4'          2.2140    -1.4310     1.7550 n7         1 EDG      -0.561200
      5 C3'          1.9650    -1.3040    -0.6260 c3         1 EDG       0.169100
      6 O3'          2.8070    -1.0090    -1.7420 oh         1 EDG      -0.584800
      7 C4'          2.7800    -1.9820     0.4960 c3         1 EDG       0.095500
      8 C5'          2.5960    -3.5000     0.4470 c3         1 EDG       0.233400
      9 O5'          3.3880    -4.1090     1.4680 oh         1 EDG      -0.594800
     10 HO2'        -0.3140     0.8090    -0.3680 ho         1 EDG       0.386000
     11 H2'          1.8100     0.8580    -0.5400 h1         1 EDG       0.016700
     12 H1'1         2.8890     0.5630     1.5070 h1         1 EDG       0.019200
     13 H1'2         1.2230     0.4070     2.1240 h1         1 EDG       0.019200
     14 H3'          1.1420    -1.9410    -0.9270 h1         1 EDG       0.028700
     15 HN4'         2.8930    -1.5030     2.4860 hn         1 EDG       0.262800
     16 H4'          3.8280    -1.7200     0.4100 h1         1 EDG       0.034700
     17 HO3'         2.3600    -1.2340    -2.5410 ho         1 EDG       0.392000
     18 H5'1         1.5520    -3.7420     0.6070 h1         1 EDG      -0.007300
     19 H5'2         2.9090    -3.8700    -0.5220 h1         1 EDG      -0.007300
     20 HO5'         3.3860    -5.0450     1.3520 ho         1 EDG       0.390000
@<TRIPOS>BOND
     1     1     2 1   
     2     1    10 1   
     3     2     3 1   
     4     2     5 1   
     5     2    11 1   
     6     3     4 1   
     7     3    12 1   
     8     3    13 1   
     9     4     7 1   
    10     4    15 1   
    11     5     6 1   
    12     5     7 1   
    13     5    14 1   
    14     6    17 1   
    15     7     8 1   
    16     7    16 1   
    17     8     9 1   
    18     8    18 1   
    19     8    19 1   
    20     9    20 1   
@<TRIPOS>SUBSTRUCTURE
     1 EDG         1 TEMP              0 ****  ****    0 ROOT
