@<TRIPOS>MOLECULE
EDH
   43    45     1     0     0
SMALL
bcc


@<TRIPOS>ATOM
      1 C01          0.0000     0.0000     0.0000 c          1 EDH       0.357700
      2 C02          1.4780     0.0000     0.0000 ca         1 EDH      -0.259600
      3 C03          2.1780     0.0000     1.2090 ca         1 EDH      -0.080000
      4 C04          3.5600     0.0000     1.2100 ca         1 EDH      -0.097000
      5 C05          4.2560    -0.0000     0.0180 ca         1 EDH       0.033000
      6 C06          3.5690    -0.0000    -1.1960 ca         1 EDH      -0.111600
      7 C07          4.3190    -0.0000    -2.4740 c          1 EDH       0.756100
      8 C08          6.3280    -0.1070    -3.6050 cc         1 EDH       0.331300
      9 C09          6.8010    -0.2390    -5.7800 ca         1 EDH      -0.224200
     10 C10          8.0010    -0.3010    -5.0680 ca         1 EDH      -0.215200
     11 C11          9.2030    -0.4220    -5.7490 ca         1 EDH      -0.072000
     12 C12          9.2090    -0.4790    -7.1280 ca         1 EDH      -0.078000
     13 C13          8.0200    -0.4170    -7.8350 ca         1 EDH      -0.080000
     14 C14          6.8180    -0.2990    -7.1660 ca         1 EDH      -0.066000
     15 C16          9.0750     1.1800    -2.2770 c3         1 EDH      -0.049400
     16 C17         10.0710     1.1510    -1.1150 c3         1 EDH       0.012900
     17 C18          2.1760    -0.0060    -1.2060 ca         1 EDH       0.060000
     18 N01         -0.6740     0.0060     1.1680 nz         1 EDH       0.198600
     19 N02          5.6560    -0.0010    -2.4640 nf         1 EDH      -0.818100
     20 N03          5.7760    -0.1120    -4.8480 na         1 EDH       0.210700
     21 N04          7.6790    -0.2200    -3.7160 na         1 EDH       0.312700
     22 O01          3.7170    -0.0010    -3.5340 o          1 EDH      -0.722100
     23 O02         -0.6080     0.0000    -1.0520 o          1 EDH      -0.431100
     24 H03          1.6370     0.0000     2.1470 ha         1 EDH       0.076000
     25 H04          4.0980     0.0000     2.1500 ha         1 EDH       0.126000
     26 H05          5.3400    -0.0000     0.0260 ha         1 EDH       0.145000
     27 H06         10.1360    -0.4710    -5.2000 ha         1 EDH       0.114000
     28 H07         10.1490    -0.5720    -7.6590 ha         1 EDH       0.116000
     29 H08          8.0330    -0.4630    -8.9180 ha         1 EDH       0.116000
     30 H09          5.8900    -0.2510    -7.7230 ha         1 EDH       0.114000
     31 H10          8.1600    -0.6890    -1.7340 h1         1 EDH       0.043700
     32 H11          9.4960    -0.8390    -2.8840 h1         1 EDH       0.043700
     33 H12          9.5370     1.6460    -3.1380 hc         1 EDH       0.025700
     34 H13          8.1980     1.7460    -1.9870 hc         1 EDH       0.025700
     35 H18          9.6250     0.6400    -0.2700 hc         1 EDH       0.006367
     36 H16         10.3250     2.1650    -0.8310 hc         1 EDH       0.006367
     37 H17         10.9680     0.6270    -1.4210 hc         1 EDH       0.006367
     38 H14          1.6390    -0.0060    -2.1460 ha         1 EDH       0.152000
     39 H01         -1.6580     0.0090     0.9860 hn         1 EDH       0.245467
     40 H02         -0.4350    -0.8100     1.6960 hn         1 EDH       0.245467
     41 H15          4.8000    -0.0360    -5.0570 hn         1 EDH       0.207700
     42 C15          8.6320    -0.2480    -2.6040 c3         1 EDH      -0.027700
     43 H013        -0.4340     0.8270     1.6880 hn         1 EDH       0.245467
@<TRIPOS>BOND
     1     1     2 1   
     2     1    18 1   
     3     1    23 2   
     4     2     3 ar  
     5     2    17 ar  
     6     3     4 ar  
     7     3    24 1   
     8     4     5 ar  
     9     4    25 1   
    10     5     6 ar  
    11     5    26 1   
    12     6     7 1   
    13     6    17 ar  
    14     7    19 1   
    15     7    22 2   
    16     8    19 2   
    17     8    20 1   
    18     8    21 1   
    19     9    10 ar  
    20     9    14 ar  
    21     9    20 1   
    22    10    11 ar  
    23    10    21 1   
    24    11    12 ar  
    25    11    27 1   
    26    12    13 ar  
    27    12    28 1   
    28    13    14 ar  
    29    13    29 1   
    30    14    30 1   
    31    15    16 1   
    32    15    33 1   
    33    15    34 1   
    34    15    42 1   
    35    16    35 1   
    36    16    36 1   
    37    16    37 1   
    38    17    38 1   
    39    18    39 1   
    40    18    40 1   
    41    18    43 1   
    42    20    41 1   
    43    21    42 1   
    44    31    42 1   
    45    32    42 1   
@<TRIPOS>SUBSTRUCTURE
     1 EDH         1 TEMP              0 ****  ****    0 ROOT
