@<TRIPOS>MOLECULE
EDJ
   52    54     1     0     0
SMALL
bcc


@<TRIPOS>ATOM
      1 C4           0.0000     0.0000     0.0000 ca         1 EDJ       0.747600
      2 C5           1.3940     0.0000     0.0000 ca         1 EDJ      -0.309500
      3 C6           2.0540     0.0000     1.2150 ca         1 EDJ       0.528200
      4 N1           1.3470     0.0000     2.3350 nb         1 EDJ      -0.720000
      5 N3          -0.6450     0.0050     1.1590 nb         1 EDJ      -0.760000
      6 CAB         -1.4020    -1.8660     7.9960 c3         1 EDJ       0.239200
      7 CBA          0.2230    -0.4140     7.0420 ca         1 EDJ       0.181600
      8 CAL         -0.4560    -0.5380     5.8410 ca         1 EDJ      -0.261500
      9 CBE          1.3580     0.3830     7.1200 ca         1 EDJ       0.027100
     10 OAT          2.0220     0.5100     8.3030 os         1 EDJ      -0.309900
     11 CAD          3.0640    -0.4330     8.5650 c3         1 EDJ       0.249700
     12 CBB          1.8160     1.0520     5.9910 ca         1 EDJ       0.181600
     13 OAS          2.9270     1.8320     6.0660 os         1 EDJ      -0.291900
     14 CAC          3.3400     2.4900     4.8670 c3         1 EDJ       0.239200
     15 CAM          1.1390     0.9220     4.7890 ca         1 EDJ      -0.261500
     16 CAW          0.0020     0.1300     4.7130 ca         1 EDJ       0.073600
     17 C2           0.0230     0.0000     2.3040 ca         1 EDJ       0.741900
     18 Br5          2.3620    -0.0010    -1.6250 br         1 EDJ      -0.081100
     19 OAU         -0.6880     0.0000    -1.1690 os         1 EDJ      -0.304400
     20 CAZ         -2.0400    -0.1030    -1.1120 ca         1 EDJ       0.158100
     21 CAI         -2.6540    -1.3320    -1.2990 ca         1 EDJ      -0.118000
     22 CAG         -4.0300    -1.4340    -1.2410 ca         1 EDJ      -0.073000
     23 CAH         -4.8050    -0.3150    -0.9960 ca         1 EDJ      -0.112000
     24 CAJ         -4.2110     0.9150    -0.8080 ca         1 EDJ      -0.067000
     25 CBC         -2.8210     1.0320    -0.8590 ca         1 EDJ      -0.161900
     26 CAV         -2.1780     2.3470    -0.6580 ce         1 EDJ       0.624200
     27 OAE         -2.9370     3.4420    -0.4250 oh         1 EDJ      -0.612600
     28 NAP         -0.8820     2.4520    -0.7060 n2         1 EDJ      -0.571900
     29 CAA         -0.2440     3.7550    -0.5070 c3         1 EDJ       0.196100
     30 H1           3.1360     0.0000     1.2500 h4         1 EDJ      -0.008900
     31 H2          -1.6410    -2.3400     8.9410 h1         1 EDJ      -0.001633
     32 H3          -2.2370    -1.2520     7.6780 h1         1 EDJ      -0.001633
     33 H4          -1.2080    -2.6260     7.2500 h1         1 EDJ      -0.001633
     34 H5          -1.3440    -1.1560     5.7810 ha         1 EDJ       0.141000
     35 H6           4.0050     0.0910     8.6800 h1         1 EDJ      -0.010300
     36 H7           2.8390    -0.9750     9.4760 h1         1 EDJ      -0.010300
     37 H8           3.1370    -1.1300     7.7390 h1         1 EDJ      -0.010300
     38 H9           2.5380     3.1230     4.5070 h1         1 EDJ      -0.001633
     39 H10          4.2150     3.0960     5.0710 h1         1 EDJ      -0.001633
     40 H11          3.5820     1.7500     4.1140 h1         1 EDJ      -0.001633
     41 H12          1.4960     1.4440     3.9080 ha         1 EDJ       0.141000
     42 H13         -1.6800    -0.0670     3.4890 hn         1 EDJ       0.295800
     43 H14         -2.0530    -2.2130    -1.4910 ha         1 EDJ       0.118000
     44 H15         -4.5050    -2.3970    -1.3880 ha         1 EDJ       0.105000
     45 H16         -5.8840    -0.4040    -0.9540 ha         1 EDJ       0.106000
     46 H17         -4.8220     1.7890    -0.6150 ha         1 EDJ       0.113000
     47 H19         -0.5540     4.4320    -1.2930 h1         1 EDJ       0.006033
     48 H20         -0.5390     4.1580     0.4540 h1         1 EDJ       0.006033
     49 H21          0.8320     3.6380    -0.5340 h1         1 EDJ       0.006033
     50 H22         -3.2240     3.8070    -1.2460 ho         1 EDJ       0.414000
     51 NAQ         -0.6810     0.0000     3.4970 nu         1 EDJ      -0.283300
     52 OAR         -0.2260    -1.0680     8.1480 os         1 EDJ      -0.291900
@<TRIPOS>BOND
     1     1     2 ar  
     2     1     5 ar  
     3     1    19 1   
     4     2     3 ar  
     5     2    18 1   
     6     3     4 ar  
     7     3    30 1   
     8     4    17 ar  
     9     5    17 ar  
    10     6    31 1   
    11     6    32 1   
    12     6    33 1   
    13     6    52 1   
    14     7     8 ar  
    15     7     9 ar  
    16     7    52 1   
    17     8    16 ar  
    18     8    34 1   
    19     9    10 1   
    20     9    12 ar  
    21    10    11 1   
    22    11    35 1   
    23    11    36 1   
    24    11    37 1   
    25    12    13 1   
    26    12    15 ar  
    27    13    14 1   
    28    14    38 1   
    29    14    39 1   
    30    14    40 1   
    31    15    16 ar  
    32    15    41 1   
    33    16    51 1   
    34    17    51 1   
    35    19    20 1   
    36    20    21 ar  
    37    20    25 ar  
    38    21    22 ar  
    39    21    43 1   
    40    22    23 ar  
    41    22    44 1   
    42    23    24 ar  
    43    23    45 1   
    44    24    25 ar  
    45    24    46 1   
    46    25    26 1   
    47    26    27 1   
    48    26    28 2   
    49    27    50 1   
    50    28    29 1   
    51    29    47 1   
    52    29    48 1   
    53    29    49 1   
    54    42    51 1   
@<TRIPOS>SUBSTRUCTURE
     1 EDJ         1 TEMP              0 ****  ****    0 ROOT
