@<TRIPOS>MOLECULE
molecule
   52    54     1     0     0
SMALL
bcc


@<TRIPOS>ATOM
      1 C4           0.0000     0.0000     0.0000 ca         1 EDJ       0.782600
      2 C5           1.3940     0.0000     0.0000 ca         1 EDJ      -0.336500
      3 C6           2.0540     0.0000     1.2150 ca         1 EDJ       0.537200
      4 N1           1.3470     0.0000     2.3350 nb         1 EDJ      -0.810000
      5 N3          -0.6450     0.0050     1.1590 nb         1 EDJ      -0.856000
      6 CAB         -1.4020    -1.8660     7.9960 c3         1 EDJ       0.126200
      7 CBA          0.2230    -0.4140     7.0420 ca         1 EDJ       0.173100
      8 CAL         -0.4560    -0.5380     5.8410 ca         1 EDJ      -0.267500
      9 CBE          1.3580     0.3830     7.1200 ca         1 EDJ       0.030100
     10 OAT          2.0220     0.5100     8.3030 os         1 EDJ      -0.323900
     11 CAD          3.0640    -0.4330     8.5650 c3         1 EDJ       0.133700
     12 CBB          1.8160     1.0520     5.9910 ca         1 EDJ       0.173100
     13 OAS          2.9270     1.8320     6.0660 os         1 EDJ      -0.310400
     14 CAC          3.3400     2.4900     4.8670 c3         1 EDJ       0.126200
     15 CAM          1.1390     0.9220     4.7890 ca         1 EDJ      -0.267500
     16 CAW          0.0020     0.1300     4.7130 ca         1 EDJ       0.226600
     17 C2           0.0230     0.0000     2.3040 ca         1 EDJ       0.977900
     18 Br5          2.3620    -0.0010    -1.6250 br         1 EDJ      -0.068100
     19 OAU         -0.6880     0.0000    -1.1690 os         1 EDJ      -0.317400
     20 CAZ         -2.0400    -0.1030    -1.1120 ca         1 EDJ       0.149100
     21 CAI         -2.6540    -1.3320    -1.2990 ca         1 EDJ      -0.133000
     22 CAG         -4.0300    -1.4340    -1.2410 ca         1 EDJ      -0.105000
     23 CAH         -4.8050    -0.3150    -0.9960 ca         1 EDJ      -0.133000
     24 CAJ         -4.2110     0.9150    -0.8080 ca         1 EDJ      -0.098000
     25 CBC         -2.8210     1.0320    -0.8590 ca         1 EDJ      -0.141900
     26 CAV         -2.1780     2.3470    -0.6580 ce         1 EDJ       0.630200
     27 OAE         -2.9370     3.4420    -0.4250 oh         1 EDJ      -0.641600
     28 NAP         -0.8820     2.4520    -0.7060 n2         1 EDJ      -0.616900
     29 CAA         -0.2440     3.7550    -0.5070 c3         1 EDJ       0.106100
     30 H1           3.1360     0.0000     1.2500 h4         1 EDJ       0.043100
     31 H2          -1.2230    -2.6360     7.2560 h1         1 EDJ       0.042533
     32 H3          -2.2130    -1.2280     7.6650 h1         1 EDJ       0.042533
     33 H4          -1.6670    -2.3270     8.9400 h1         1 EDJ       0.042533
     34 H5          -1.3440    -1.1560     5.7810 ha         1 EDJ       0.152000
     35 H6           3.1680    -1.1010     7.7190 h1         1 EDJ       0.033033
     36 H7           2.8170    -1.0080     9.4500 h1         1 EDJ       0.033033
     37 H8           3.9960     0.0940     8.7260 h1         1 EDJ       0.033033
     38 H9           2.5270     3.0970     4.4890 h1         1 EDJ       0.042533
     39 H10          3.6140     1.7500     4.1250 h1         1 EDJ       0.042533
     40 H11          4.1940     3.1220     5.0780 h1         1 EDJ       0.042533
     41 H12          1.4960     1.4440     3.9080 ha         1 EDJ       0.152000
     42 H13         -1.6800    -0.0610     3.4890 hn         1 EDJ       0.470800
     43 H14         -2.0530    -2.2130    -1.4910 ha         1 EDJ       0.148000
     44 H15         -4.5050    -2.3970    -1.3880 ha         1 EDJ       0.138000
     45 H16         -5.8840    -0.4040    -0.9540 ha         1 EDJ       0.137000
     46 H17         -4.8220     1.7890    -0.6150 ha         1 EDJ       0.145000
     47 H19          0.8320     3.6420    -0.5590 h1         1 EDJ       0.047033
     48 H20         -0.5190     4.1470     0.4650 h1         1 EDJ       0.047033
     49 H21         -0.5740     4.4400    -1.2790 h1         1 EDJ       0.047033
     50 H22         -3.2450     3.7920    -1.2440 ho         1 EDJ       0.430000
     51 NAQ         -0.6810     0.0000     3.4970 nu         1 EDJ      -0.749300
     52 OAR         -0.2260    -1.0680     8.1480 os         1 EDJ      -0.310400
@<TRIPOS>BOND
     1    11    10 1
     2     6    52 1
     3    13    12 1
     4    13    14 1
     5    15    12 ar
     6    15    16 ar
     7    12     9 ar
     8    51    16 1
     9    51    17 1
    10    16     8 ar
    11     9    10 1
    12     9     7 ar
    13     8     7 ar
    14     7    52 1
    15    23    22 ar
    16    23    24 ar
    17    22    21 ar
    18    17     4 ar
    19    17     5 ar
    20     4     3 ar
    21    24    25 ar
    22    21    20 ar
    23     5     1 ar
    24     3     2 ar
    25    25    20 ar
    26    25    26 1
    27    20    19 1
    28     1     2 ar
    29     1    19 1
    30     2    18 1
    31    26    27 1
    32    26    28 2
    33    28    29 1
    34     3    30 1
    35     6    31 1
    36     6    32 1
    37     6    33 1
    38     8    34 1
    39    11    35 1
    40    11    36 1
    41    11    37 1
    42    14    38 1
    43    14    39 1
    44    14    40 1
    45    15    41 1
    46    51    42 1
    47    21    43 1
    48    22    44 1
    49    23    45 1
    50    24    46 1
    51    29    47 1
    52    29    48 1
    53    29    49 1
    54    27    50 1
@<TRIPOS>SUBSTRUCTURE
     1 EDJ         1 TEMP              0 ****  ****    0 ROOT
