@<TRIPOS>MOLECULE
EDM
   28    28     1     0     0
SMALL
bcc


@<TRIPOS>ATOM
      1 C23          0.0000     0.0000     0.0000 c3         1 EDM       0.209100
      2 N21          1.4650     0.0000     0.0000 nh         1 EDM      -0.467300
      3 C25          2.1970     0.0000     1.2680 c3         1 EDM       0.209100
      4 C1           2.1570    -0.0010    -1.2010 ca         1 EDM       0.535200
      5 C2           1.4740     0.1030    -2.4110 ca         1 EDM      -0.384600
      6 N6           3.4840    -0.0960    -1.2150 nb         1 EDM      -0.617000
      7 C5           4.1530    -0.0960    -2.3510 ca         1 EDM       0.586900
      8 S17          5.9090    -0.2250    -2.3090 sy         1 EDM       0.809900
      9 C29          6.2340    -2.0080    -2.3710 c3         1 EDM       0.028700
     10 O27          6.3350     0.4010    -3.5110 o          1 EDM      -0.568800
     11 O19          6.2690     0.3040    -1.0390 o          1 EDM      -0.568800
     12 N4           3.5470    -0.0050    -3.5160 nb         1 EDM      -0.596000
     13 C3           2.2190     0.0990    -3.5900 ca         1 EDM       0.489100
     14 C13          1.5470     0.2050    -4.9030 ce         1 EDM      -0.253800
     15 C15          2.2640     0.2000    -6.0180 c2         1 EDM      -0.091000
     16 H23         -0.3610     0.9050    -0.4740 h1         1 EDM       0.011200
     17 H23A        -0.3610    -0.8630    -0.5470 h1         1 EDM       0.011200
     18 H23B        -0.3610    -0.0420     1.0200 h1         1 EDM       0.011200
     19 H25          2.8690     0.8500     1.2970 h1         1 EDM       0.011200
     20 H25A         1.4960     0.0660     2.0910 h1         1 EDM       0.011200
     21 H25B         2.7700    -0.9160     1.3540 h1         1 EDM       0.011200
     22 H2           0.3940     0.1860    -2.4350 ha         1 EDM       0.134000
     23 H29          7.3040    -2.1800    -2.3730 h1         1 EDM       0.060367
     24 H29A         5.7940    -2.4860    -1.5040 h1         1 EDM       0.060367
     25 H29B         5.8000    -2.4240    -3.2720 h1         1 EDM       0.060367
     26 H13          0.4680     0.2880    -4.9530 ha         1 EDM       0.106000
     27 H15          3.3430     0.1180    -5.9670 ha         1 EDM       0.095000
     28 H15A         1.7710     0.2780    -6.9790 ha         1 EDM       0.095000
@<TRIPOS>BOND
     1     1     2 1   
     2     1    16 1   
     3     1    17 1   
     4     1    18 1   
     5     2     3 1   
     6     2     4 1   
     7     3    19 1   
     8     3    20 1   
     9     3    21 1   
    10     4     5 ar  
    11     4     6 ar  
    12     5    13 ar  
    13     5    22 1   
    14     6     7 ar  
    15     7     8 1   
    16     7    12 ar  
    17     8     9 1   
    18     8    10 2   
    19     8    11 2   
    20     9    23 1   
    21     9    24 1   
    22     9    25 1   
    23    12    13 ar  
    24    13    14 1   
    25    14    15 2   
    26    14    26 1   
    27    15    27 1   
    28    15    28 1   
@<TRIPOS>SUBSTRUCTURE
     1 EDM         1 TEMP              0 ****  ****    0 ROOT
