@<TRIPOS>MOLECULE
EDN
   14    13     1     0     0
SMALL
bcc


@<TRIPOS>ATOM
      1 NAA          0.0000     0.0000     0.0000 nz         1 EDN       0.108400
      2 CAB          1.4690     0.0000     0.0000 c3         1 EDN      -0.051700
      3 CAC          1.9780     0.0000     1.4430 c3         1 EDN      -0.051700
      4 NAD          3.4470    -0.0000     1.4430 nz         1 EDN       0.108400
      5 HAA1        -0.3340     0.8170     0.4720 hn         1 EDN       0.245300
      6 HAA2        -0.3340     0.0000    -0.9440 hn         1 EDN       0.245300
      7 HAB1         1.8300    -0.8850    -0.5110 hx         1 EDN       0.103450
      8 HAB2         1.8300     0.8850    -0.5110 hx         1 EDN       0.103450
      9 HAC1         1.6170     0.8850     1.9530 hx         1 EDN       0.103450
     10 HAC2         1.6170    -0.8850     1.9530 hx         1 EDN       0.103450
     11 HAD1         3.7810     0.8170     0.9710 hn         1 EDN       0.245300
     12 HAD2         3.7810     0.0000     2.3860 hn         1 EDN       0.245300
     13 HAA3        -0.3340    -0.8170     0.4720 hn         1 EDN       0.245300
     14 HAD3         3.7810    -0.8510     1.0340 hn         1 EDN       0.245300
@<TRIPOS>BOND
     1     1     2 1   
     2     1     5 1   
     3     1     6 1   
     4     1    13 1   
     5     2     3 1   
     6     2     7 1   
     7     2     8 1   
     8     3     4 1   
     9     3     9 1   
    10     3    10 1   
    11     4    11 1   
    12     4    12 1   
    13     4    14 1   
@<TRIPOS>SUBSTRUCTURE
     1 EDN         1 TEMP              0 ****  ****    0 ROOT
