@<TRIPOS>MOLECULE
EDP
   34    34     1     0     0
SMALL
bcc


@<TRIPOS>ATOM
      1 C1           0.0000     0.0000     0.0000 c3         1 EDP      -0.226000
      2 C2           1.5170     0.0000     0.0000 c          1 EDP       0.603500
      3 N3           2.1420     0.0000     1.1970 ns         1 EDP      -0.039500
      4 C4           1.4630    -0.0000     2.3500 cs         1 EDP       0.268400
      5 N5           0.1290    -0.0010     2.4500 ns         1 EDP      -0.039500
      6 C6          -0.6660    -0.0030     1.3640 c          1 EDP       0.603500
      7 O7          -1.8740    -0.0030     1.4690 o          1 EDP      -0.589000
      8 O8           2.1450     0.0000    -1.0380 o          1 EDP      -0.589000
      9 S9           2.3680    -0.0010     3.8020 s          1 EDP      -0.608400
     10 C12         -0.4770     1.2400    -0.7590 c3         1 EDP      -0.026400
     11 C13         -0.0180     2.4980    -0.0210 c3         1 EDP      -0.011100
     12 C14         -0.4770    -1.2370    -0.7640 c3         1 EDP      -0.031700
     13 C15          0.1050    -2.4930    -0.1160 c3         1 EDP      -0.016100
     14 C16         -0.0080    -1.1490    -2.2180 c3         1 EDP      -0.067400
     15 C17         -0.5870    -2.3210    -3.0130 c3         1 EDP      -0.028400
     16 C18         -0.1180    -2.2330    -4.4660 c3         1 EDP       0.007900
     17 HN3          3.1420     0.0000     1.2220 hn         1 EDP       0.222500
     18 HN5         -0.2910    -0.0000     3.3590 hn         1 EDP       0.222500
     19 H12         -1.5590     1.2310    -0.8210 hc         1 EDP       0.050200
     20 H12A        -0.0590     1.2340    -1.7590 hc         1 EDP       0.050200
     21 H13         -0.3810     3.3760    -0.5420 hc         1 EDP       0.008700
     22 H13A         1.0650     2.5210     0.0140 hc         1 EDP       0.008700
     23 H13B        -0.4120     2.4890     0.9880 hc         1 EDP       0.008700
     24 H14         -1.5590    -1.2840    -0.7360 hc         1 EDP       0.057700
     25 H15          0.1170    -2.3720     0.9600 hc         1 EDP       0.011700
     26 H15A        -0.5050    -3.3490    -0.3760 hc         1 EDP       0.011700
     27 H15B         1.1160    -2.6480    -0.4730 hc         1 EDP       0.011700
     28 H16          1.0740    -1.1900    -2.2510 hc         1 EDP       0.045700
     29 H16A        -0.3470    -0.2160    -2.6510 hc         1 EDP       0.045700
     30 H17         -1.6690    -2.2800    -2.9800 hc         1 EDP       0.013700
     31 H17A        -0.2480    -3.2540    -2.5800 hc         1 EDP       0.013700
     32 H18         -0.4480    -1.2950    -4.8960 hc         1 EDP       0.002367
     33 H18A         0.9640    -2.2840    -4.5000 hc         1 EDP       0.002367
     34 H18B        -0.5370    -3.0560    -5.0310 hc         1 EDP       0.002367
@<TRIPOS>BOND
     1     1     2 1   
     2     1     6 1   
     3     1    10 1   
     4     1    12 1   
     5     2     3 1   
     6     2     8 2   
     7     3     4 1   
     8     3    17 1   
     9     4     5 1   
    10     4     9 2   
    11     5     6 1   
    12     5    18 1   
    13     6     7 2   
    14    10    11 1   
    15    10    19 1   
    16    10    20 1   
    17    11    21 1   
    18    11    22 1   
    19    11    23 1   
    20    12    13 1   
    21    12    14 1   
    22    12    24 1   
    23    13    25 1   
    24    13    26 1   
    25    13    27 1   
    26    14    15 1   
    27    14    28 1   
    28    14    29 1   
    29    15    16 1   
    30    15    30 1   
    31    15    31 1   
    32    16    32 1   
    33    16    33 1   
    34    16    34 1   
@<TRIPOS>SUBSTRUCTURE
     1 EDP         1 TEMP              0 ****  ****    0 ROOT
