@<TRIPOS>MOLECULE
molecule
   28    28     1     0     0
SMALL
bcc


@<TRIPOS>ATOM
      1 C1           0.0000     0.0000     0.0000 ca         1 EDR      -0.125000
      2 C2           1.3830     0.0000     0.0000 ca         1 EDR      -0.048400
      3 C3           2.0740     0.0000     1.1960 ca         1 EDR      -0.143000
      4 C4           1.3790     0.0110     2.3980 ca         1 EDR       0.148100
      5 C5          -0.0070     0.0120     2.3940 ca         1 EDR      -0.106000
      6 C6          -0.6940     0.0060     1.1960 ca         1 EDR      -0.082000
      7 O4           2.0570     0.0170     3.5760 oh         1 EDR      -0.499100
      8 N2           2.0820    -0.0060    -1.2100 n4         1 EDR      -0.430200
      9 C7           2.9270    -1.2050    -1.2820 c3         1 EDR       0.095100
     10 C8           2.9270     1.1930    -1.2940 c3         1 EDR       0.095100
     11 C9           1.1280    -0.0120    -2.3270 c3         1 EDR       0.102800
     12 C10          1.8930    -0.0180    -3.6520 c3         1 EDR      -0.123100
     13 H1          -0.5410    -0.0020    -0.9390 ha         1 EDR       0.153000
     14 H3           3.1570    -0.0000     1.1960 ha         1 EDR       0.157000
     15 H5          -0.5510     0.0190     3.3300 ha         1 EDR       0.176000
     16 H6          -1.7780     0.0060     1.1930 ha         1 EDR       0.171000
     17 HO4          2.1370    -0.8660     3.8970 ho         1 EDR       0.443000
     18 H71          3.6050    -1.2210    -0.4370 hx         1 EDR       0.098700
     19 H72          2.3020    -2.0900    -1.2590 hx         1 EDR       0.098700
     20 H73          3.4980    -1.1900    -2.2030 hx         1 EDR       0.098700
     21 H81          2.3180     2.0450    -1.5720 hx         1 EDR       0.098700
     22 H82          3.6970     1.0400    -2.0400 hx         1 EDR       0.098700
     23 H83          3.3880     1.3780    -0.3310 hx         1 EDR       0.098700
     24 H91          0.5050     0.8730    -2.2740 hx         1 EDR       0.104200
     25 H92          0.5050    -0.8960    -2.2650 hx         1 EDR       0.104200
     26 H101         2.3870    -0.9740    -3.7790 hc         1 EDR       0.072033
     27 H102         1.2010     0.1420    -4.4690 hc         1 EDR       0.072033
     28 H103         2.6340     0.7720    -3.6450 hc         1 EDR       0.072033
@<TRIPOS>BOND
     1     1     2 ar
     2     1     6 ar
     3     1    13 1
     4     2     3 ar
     5     2     8 1
     6     3     4 ar
     7     3    14 1
     8     4     5 ar
     9     4     7 1
    10     5     6 ar
    11     5    15 1
    12     6    16 1
    13     7    17 1
    14     8     9 1
    15     8    10 1
    16     8    11 1
    17     9    18 1
    18     9    19 1
    19     9    20 1
    20    10    21 1
    21    10    22 1
    22    10    23 1
    23    11    12 1
    24    11    24 1
    25    11    25 1
    26    12    26 1
    27    12    27 1
    28    12    28 1
@<TRIPOS>SUBSTRUCTURE
     1 EDR         1 TEMP              0 ****  ****    0 ROOT
