@<TRIPOS>MOLECULE
EDT
   32    31     1     0     0
SMALL
bcc


@<TRIPOS>ATOM
      1 O20          0.0000     0.0000     0.0000 o          1 EDT      -0.930550
      2 C5           1.3430     0.0000     0.0000 c          1 EDT       0.988850
      3 O19          1.9470     0.0000     1.0470 o          1 EDT      -0.930550
      4 C4           2.0960    -0.0000    -1.3050 c3         1 EDT       0.010800
      5 N3           3.5400     0.0000    -1.0370 n3         1 EDT      -0.438100
      6 C2           3.8510     1.2860    -0.4020 c3         1 EDT       0.010800
      7 C1           5.1980     1.2040     0.2680 c          1 EDT       0.988850
      8 O18          5.8180     0.1680     0.2510 o          1 EDT      -0.930550
      9 O17          5.7100     2.2820     0.8820 o          1 EDT      -0.930550
     10 C6           4.2120    -0.0010    -2.3430 c3         1 EDT       0.107300
     11 C7           3.9580    -1.3340    -3.0470 c3         1 EDT       0.107300
     12 N8           4.7440    -1.3910    -4.2860 n3         1 EDT      -0.438100
     13 C9           4.4540    -2.6900    -4.9100 c3         1 EDT       0.010800
     14 C10          5.1970    -3.7760    -4.1760 c          1 EDT       0.988850
     15 O16          5.1550    -5.0400    -4.6260 o          1 EDT      -0.930550
     16 O15          5.8290    -3.5090    -3.1820 o          1 EDT      -0.930550
     17 C11          4.1960    -0.3630    -5.1800 c3         1 EDT       0.010800
     18 C12          5.1770    -0.0900    -6.2920 c          1 EDT       0.988850
     19 O13          6.2240    -0.6910    -6.3340 o          1 EDT      -0.930550
     20 O14          4.8860     0.8190    -7.2350 o          1 EDT      -0.930550
     21 H041         1.8340     0.8840    -1.8730 h1         1 EDT       0.003575
     22 H042         1.8340    -0.8850    -1.8730 h1         1 EDT       0.003575
     23 H021         3.8690     2.0650    -1.1550 h1         1 EDT       0.003575
     24 H022         3.0930     1.5170     0.3370 h1         1 EDT       0.003575
     25 H061         5.2780     0.1350    -2.2010 h1         1 EDT       0.019700
     26 H062         3.8230     0.8070    -2.9500 h1         1 EDT       0.019700
     27 H071         2.9040    -1.4230    -3.2830 h1         1 EDT       0.019700
     28 H072         4.2520    -2.1480    -2.3950 h1         1 EDT       0.019700
     29 H091         4.7720    -2.6720    -5.9450 h1         1 EDT       0.003575
     30 H092         3.3900    -2.8840    -4.8620 h1         1 EDT       0.003575
     31 H111         4.0230     0.5480    -4.6200 h1         1 EDT       0.003575
     32 H112         3.2610    -0.7110    -5.6020 h1         1 EDT       0.003575
@<TRIPOS>BOND
     1     1     2 1   
     2     2     3 1   
     3     2     4 1   
     4     4     5 1   
     5     4    21 1   
     6     4    22 1   
     7     5     6 1   
     8     5    10 1   
     9     6     7 1   
    10     6    23 1   
    11     6    24 1   
    12     7     8 1   
    13     7     9 1   
    14    10    11 1   
    15    10    25 1   
    16    10    26 1   
    17    11    12 1   
    18    11    27 1   
    19    11    28 1   
    20    12    13 1   
    21    12    17 1   
    22    13    14 1   
    23    13    29 1   
    24    13    30 1   
    25    14    15 1   
    26    14    16 1   
    27    17    18 1   
    28    17    31 1   
    29    17    32 1   
    30    18    19 1   
    31    18    20 1   
@<TRIPOS>SUBSTRUCTURE
     1 EDT         1 TEMP              0 ****  ****    0 ROOT
