@<TRIPOS>MOLECULE
EDU
   30    31     1     0     0
SMALL
bcc


@<TRIPOS>ATOM
      1 O01          0.0000     0.0000     0.0000 oh         1 EDU      -0.578800
      2 C03          1.4290     0.0000     0.0000 c3         1 EDU       0.222400
      3 C06          1.9400     0.0000     1.4420 c3         1 EDU       0.146100
      4 O08          1.6630    -1.2700     2.0730 os         1 EDU      -0.365600
      5 C09          3.4790     0.1260     1.4680 c3         1 EDU       0.169100
      6 O10          3.8660     1.4780     1.7130 oh         1 EDU      -0.582800
      7 C13          3.9110    -0.7830     2.6400 c3         1 EDU      -0.125400
      8 C16          2.5810    -1.3510     3.1850 c3         1 EDU       0.235500
      9 N18          2.7540    -2.7440     3.6030 n          1 EDU       0.054000
     10 C19          3.1110    -3.6640     2.6930 c          1 EDU       0.590500
     11 O20          3.2800    -3.3180     1.5390 o          1 EDU      -0.691500
     12 N21          3.2850    -4.9560     3.0200 ns         1 EDU      -0.130500
     13 C23          3.1030    -5.3680     4.2920 c          1 EDU       0.617700
     14 O24          3.2600    -6.5370     4.5940 o          1 EDU      -0.637500
     15 C25          2.7120    -4.3760     5.3050 cc         1 EDU      -0.080900
     16 C26          2.5570    -3.0780     4.9120 cd         1 EDU      -0.093400
     17 C28          2.5070    -4.7620     6.6680 cg         1 EDU      -0.149300
     18 C29          2.3450    -5.0970     7.7820 c1         1 EDU      -0.085500
     19 H1          -0.3140     0.6940    -0.5560 ho         1 EDU       0.386000
     20 H2           1.7900     0.8850    -0.5110 h1         1 EDU       0.005200
     21 H3           1.7900    -0.8840    -0.5110 h1         1 EDU       0.005200
     22 H4           1.4880     0.8060     2.0080 h1         1 EDU       0.037700
     23 H5           3.9020    -0.2330     0.5370 h1         1 EDU       0.023700
     24 H6           4.4980     1.7470     1.0670 ho         1 EDU       0.394000
     25 H7           4.3660    -1.6910     2.2610 hc         1 EDU       0.055200
     26 H8           4.6000    -0.2550     3.2880 hc         1 EDU       0.055200
     27 H9           2.2250    -0.7450     4.0090 h2         1 EDU       0.032700
     28 H10          3.5400    -5.6160     2.3110 hn         1 EDU       0.208500
     29 H11          2.4220    -2.3020     5.6560 h4         1 EDU       0.141000
     30 H12          2.1980    -5.3880     8.8150 ha         1 EDU       0.139500
@<TRIPOS>BOND
     1     1     2 1   
     2     1    19 1   
     3     2     3 1   
     4     2    20 1   
     5     2    21 1   
     6     3     4 1   
     7     3     5 1   
     8     3    22 1   
     9     4     8 1   
    10     5     6 1   
    11     5     7 1   
    12     5    23 1   
    13     6    24 1   
    14     7     8 1   
    15     7    25 1   
    16     7    26 1   
    17     8     9 1   
    18     8    27 1   
    19     9    10 1   
    20     9    16 1   
    21    10    11 2   
    22    10    12 1   
    23    12    13 1   
    24    12    28 1   
    25    13    14 2   
    26    13    15 1   
    27    15    16 2   
    28    15    17 1   
    29    16    29 1   
    30    17    18 3   
    31    18    30 1   
@<TRIPOS>SUBSTRUCTURE
     1 EDU         1 TEMP              0 ****  ****    0 ROOT
