@<TRIPOS>MOLECULE
molecule
   30    31     1     0     0
SMALL
bcc


@<TRIPOS>ATOM
      1 O01          0.0000     0.0000     0.0000 oh         1 EDU      -0.592800
      2 C03          1.4290     0.0000     0.0000 c3         1 EDU       0.147400
      3 C06          1.9400     0.0000     1.4420 c3         1 EDU       0.118100
      4 O08          1.6630    -1.2700     2.0730 os         1 EDU      -0.376600
      5 C09          3.4790     0.1260     1.4680 c3         1 EDU       0.119100
      6 O10          3.8660     1.4780     1.7130 oh         1 EDU      -0.601800
      7 C13          3.9110    -0.7830     2.6400 c3         1 EDU      -0.155400
      8 C16          2.5810    -1.3510     3.1850 c3         1 EDU       0.318500
      9 N18          2.7540    -2.7440     3.6030 n          1 EDU      -0.357000
     10 C19          3.1110    -3.6640     2.6930 c          1 EDU       0.811500
     11 O20          3.2800    -3.3180     1.5390 o          1 EDU      -0.642500
     12 N21          3.2850    -4.9560     3.0200 ns         1 EDU      -0.559500
     13 C23          3.1030    -5.3680     4.2920 c          1 EDU       0.707700
     14 O24          3.2600    -6.5370     4.5940 o          1 EDU      -0.597500
     15 C25          2.7120    -4.3760     5.3050 cc         1 EDU      -0.115900
     16 C26          2.5570    -3.0780     4.9120 cd         1 EDU       0.049600
     17 C28          2.5070    -4.7620     6.6680 cg         1 EDU      -0.142300
     18 C29          2.3450    -5.0970     7.7820 c1         1 EDU      -0.115500
     19 H1          -0.3140     0.6940    -0.5560 ho         1 EDU       0.400000
     20 H2           1.7900     0.8850    -0.5110 h1         1 EDU       0.045700
     21 H3           1.7900    -0.8840    -0.5110 h1         1 EDU       0.045700
     22 H4           1.4880     0.8060     2.0080 h1         1 EDU       0.071700
     23 H5           3.9020    -0.2330     0.5370 h1         1 EDU       0.059700
     24 H6           4.4980     1.7470     1.0670 ho         1 EDU       0.408000
     25 H7           4.3660    -1.6910     2.2610 hc         1 EDU       0.083700
     26 H8           4.6000    -0.2550     3.2880 hc         1 EDU       0.083700
     27 H9           2.2250    -0.7450     4.0090 h2         1 EDU       0.072700
     28 H10          3.5400    -5.6160     2.3110 hn         1 EDU       0.367500
     29 H11          2.4220    -2.3020     5.6560 h4         1 EDU       0.173000
     30 H12          2.1980    -5.3880     8.8150 ha         1 EDU       0.171500
@<TRIPOS>BOND
     1    18    17 3
     2    17    15 1
     3    14    13 2
     4    15    13 1
     5    15    16 2
     6    13    12 1
     7     2     1 1
     8     2     3 1
     9    16     9 1
    10     4     3 1
    11     4     8 1
    12    12    10 1
    13     3     5 1
    14     9    10 1
    15     9     8 1
    16    10    11 2
    17     8     7 1
    18     5     7 1
    19     5     6 1
    20     1    19 1
    21     2    20 1
    22     2    21 1
    23     3    22 1
    24     5    23 1
    25     6    24 1
    26     7    25 1
    27     7    26 1
    28     8    27 1
    29    12    28 1
    30    16    29 1
    31    18    30 1
@<TRIPOS>SUBSTRUCTURE
     1 EDU         1 TEMP              0 ****  ****    0 ROOT
