@<TRIPOS>MOLECULE
EDV
   33    34     1     0     0
SMALL
bcc


@<TRIPOS>ATOM
      1 O01          0.0000     0.0000     0.0000 oh         1 EDV      -0.580800
      2 C03          1.4290     0.0000     0.0000 c3         1 EDV       0.225400
      3 C06          1.9400     0.0000     1.4420 c3         1 EDV       0.149100
      4 O08          1.6620    -1.2690     2.0740 os         1 EDV      -0.400600
      5 C09          3.4790     0.1250     1.4670 c3         1 EDV       0.159100
      6 O11          3.8670     1.4790     1.7110 oh         1 EDV      -0.569800
      7 C13          3.9100    -0.7820     2.6410 c3         1 EDV      -0.118700
      8 C15          4.8100    -1.9140     2.1400 c3         1 EDV      -0.005100
      9 C16          2.5810    -1.3490     3.1860 c3         1 EDV       0.230500
     10 N18          2.7530    -2.7420     3.6050 n          1 EDV       0.058000
     11 C19          3.2080    -3.0040     4.8410 c          1 EDV       0.587500
     12 O20          3.4670    -2.0780     5.5840 o          1 EDV      -0.705500
     13 N21          3.3850    -4.2620     5.2800 ns         1 EDV      -0.127500
     14 C23          3.1060    -5.3100     4.4770 c          1 EDV       0.617700
     15 O24          3.2640    -6.4520     4.8690 o          1 EDV      -0.638500
     16 C25          2.6070    -5.0450     3.1200 cc         1 EDV      -0.093900
     17 C26          2.4430    -3.7450     2.7330 cd         1 EDV      -0.085400
     18 C28          2.2910    -6.1210     2.2290 cg         1 EDV      -0.142300
     19 C29          2.0510    -7.0030     1.4930 c1         1 EDV      -0.094500
     20 H1          -0.3140    -0.5040    -0.7320 ho         1 EDV       0.394000
     21 H2           1.7900    -0.8850    -0.5110 h1         1 EDV      -0.003800
     22 H3           1.7900     0.8840    -0.5110 h1         1 EDV      -0.003800
     23 H4           1.4890     0.8070     2.0070 h1         1 EDV       0.053700
     24 H5           3.9020    -0.2350     0.5370 h1         1 EDV       0.017700
     25 H6           4.4320     1.7740     1.0170 ho         1 EDV       0.394000
     26 H7           4.4120    -0.1990     3.4040 hc         1 EDV       0.074700
     27 H8           5.5470    -1.5130     1.4550 hc         1 EDV       0.012367
     28 H9           4.2080    -2.6550     1.6290 hc         1 EDV       0.012367
     29 H10          5.3130    -2.3750     2.9820 hc         1 EDV       0.012367
     30 H11          2.2250    -0.7420     4.0100 h2         1 EDV       0.066700
     31 H12          3.7130    -4.4160     6.2130 hn         1 EDV       0.209500
     32 H13          2.1660    -3.5110     1.7120 h4         1 EDV       0.156000
     33 H14          1.8160    -7.8060     0.8050 ha         1 EDV       0.139500
@<TRIPOS>BOND
     1     1     2 1   
     2     1    20 1   
     3     2     3 1   
     4     2    21 1   
     5     2    22 1   
     6     3     4 1   
     7     3     5 1   
     8     3    23 1   
     9     4     9 1   
    10     5     6 1   
    11     5     7 1   
    12     5    24 1   
    13     6    25 1   
    14     7     8 1   
    15     7     9 1   
    16     7    26 1   
    17     8    27 1   
    18     8    28 1   
    19     8    29 1   
    20     9    10 1   
    21     9    30 1   
    22    10    11 1   
    23    10    17 1   
    24    11    12 2   
    25    11    13 1   
    26    13    14 1   
    27    13    31 1   
    28    14    15 2   
    29    14    16 1   
    30    16    17 2   
    31    16    18 1   
    32    17    32 1   
    33    18    19 3   
    34    19    33 1   
@<TRIPOS>SUBSTRUCTURE
     1 EDV         1 TEMP              0 ****  ****    0 ROOT
