@<TRIPOS>MOLECULE
EDZ
   30    31     1     0     0
SMALL
bcc


@<TRIPOS>ATOM
      1 CAC          0.0000     0.0000     0.0000 ca         1 EDZ      -0.112000
      2 CAD          1.3820     0.0000     0.0000 ca         1 EDZ      -0.077000
      3 CAE         -0.6940     0.0010     1.1960 ca         1 EDZ      -0.078000
      4 CAF          2.0750     0.0000     1.1940 ca         1 EDZ      -0.114000
      5 CAG          6.2030    -0.8790     5.9160 cc         1 EDZ       0.209200
      6 CAH         -0.9120     1.4380     4.2010 c3         1 EDZ       0.223400
      7 CAO          3.3340    -0.4910     3.6650 c          1 EDZ       0.529100
      8 CAP         -0.0070     0.0010     2.3940 ca         1 EDZ      -0.125300
      9 CAQ          5.3470    -0.8960     4.8590 cd         1 EDZ      -0.094800
     10 CAR          1.3820     0.0000     2.3970 ca         1 EDZ      -0.078400
     11 NAJ          7.3750    -1.4280     5.7020 nc         1 EDZ      -0.208000
     12 NAK          7.6220    -1.9260     4.5470 nd         1 EDZ      -0.154100
     13 NAL          4.0490    -0.3890     4.8030 ns         1 EDZ       0.035900
     14 NAM          2.0800    -0.0010     3.6100 ns         1 EDZ      -0.032100
     15 OAA          3.8220    -1.0250     2.6870 o          1 EDZ      -0.649100
     16 OAB         -1.6300     1.4380     5.4380 oh         1 EDZ      -0.595800
     17 SAN          6.2290    -1.6850     3.6060 ss         1 EDZ       0.057200
     18 H1          -0.5410    -0.0000    -0.9390 ha         1 EDZ       0.105000
     19 H2           1.9230    -0.0000    -0.9390 ha         1 EDZ       0.106000
     20 H3          -1.7770     0.0010     1.1940 ha         1 EDZ       0.107000
     21 H4           3.1580    -0.0000     1.1930 ha         1 EDZ       0.157000
     22 H6          -1.4710     1.9970     3.4600 h1         1 EDZ      -0.013300
     23 H7           0.0570     1.9000     4.3460 h1         1 EDZ      -0.013300
     24 H12          3.6490     0.0510     5.6080 hn         1 EDZ       0.165500
     25 H13          1.6620     0.3950     4.4290 hn         1 EDZ       0.172500
     26 H14         -1.9950     2.2940     5.5890 ho         1 EDZ       0.394000
     27 CAI         -0.7640     0.0010     3.6970 c3         1 EDZ       0.018900
     28 H5           5.9350    -0.4410     6.8700 h4         1 EDZ       0.009100
     29 H8          -1.7460    -0.4310     3.5450 hc         1 EDZ       0.027700
     30 H9          -0.2220    -0.5840     4.4300 hc         1 EDZ       0.027700
@<TRIPOS>BOND
     1     1     2 ar  
     2     1     3 ar  
     3     1    18 1   
     4     2     4 ar  
     5     2    19 1   
     6     3     8 ar  
     7     3    20 1   
     8     4    10 ar  
     9     4    21 1   
    10     5     9 2   
    11     5    11 1   
    12     5    28 1   
    13     6    16 1   
    14     6    22 1   
    15     6    23 1   
    16     6    27 1   
    17     7    13 1   
    18     7    14 1   
    19     7    15 2   
    20     8    10 ar  
    21     8    27 1   
    22     9    13 1   
    23     9    17 1   
    24    10    14 1   
    25    11    12 2   
    26    12    17 1   
    27    13    24 1   
    28    14    25 1   
    29    16    26 1   
    30    27    29 1   
    31    27    30 1   
@<TRIPOS>SUBSTRUCTURE
     1 EDZ         1 TEMP              0 ****  ****    0 ROOT
