@<TRIPOS>MOLECULE
molecule
   30    31     1     0     0
SMALL
bcc


@<TRIPOS>ATOM
      1 CAC          0.0000     0.0000     0.0000 ca         1 EDZ      -0.143000
      2 CAD          1.3820     0.0000     0.0000 ca         1 EDZ      -0.107000
      3 CAE         -0.6940     0.0010     1.1960 ca         1 EDZ      -0.105000
      4 CAF          2.0750     0.0000     1.1940 ca         1 EDZ      -0.134000
      5 CAG          6.2030    -0.8790     5.9160 cc         1 EDZ       0.221200
      6 CAH         -0.9120     1.4380     4.2010 c3         1 EDZ       0.138400
      7 CAO          3.3340    -0.4910     3.6650 c          1 EDZ       0.775100
      8 CAP         -0.0070     0.0010     2.3940 ca         1 EDZ      -0.123300
      9 CAQ          5.3470    -0.8960     4.8590 cd         1 EDZ       0.003200
     10 CAR          1.3820     0.0000     2.3970 ca         1 EDZ       0.070600
     11 NAJ          7.3750    -1.4280     5.7020 nc         1 EDZ      -0.309000
     12 NAK          7.6220    -1.9260     4.5470 nd         1 EDZ      -0.154100
     13 NAL          4.0490    -0.3890     4.8030 ns         1 EDZ      -0.437100
     14 NAM          2.0800    -0.0010     3.6100 ns         1 EDZ      -0.475100
     15 OAA          3.8220    -1.0250     2.6870 o          1 EDZ      -0.618100
     16 OAB         -1.6300     1.4380     5.4380 oh         1 EDZ      -0.613800
     17 SAN          6.2290    -1.6850     3.6060 ss         1 EDZ       0.180200
     18 H1          -0.5410    -0.0000    -0.9390 ha         1 EDZ       0.133000
     19 H2           1.9230    -0.0000    -0.9390 ha         1 EDZ       0.137000
     20 H3          -1.7770     0.0010     1.1940 ha         1 EDZ       0.135000
     21 H4           3.1580    -0.0000     1.1930 ha         1 EDZ       0.174000
     22 H6          -1.4710     1.9970     3.4600 h1         1 EDZ       0.023200
     23 H7           0.0570     1.9000     4.3460 h1         1 EDZ       0.023200
     24 H12          3.6490     0.0510     5.6080 hn         1 EDZ       0.333500
     25 H13          1.6620     0.3950     4.4290 hn         1 EDZ       0.328500
     26 H14         -1.9950     2.2940     5.5890 ho         1 EDZ       0.406000
     27 CAI         -0.7640     0.0010     3.6970 c3         1 EDZ      -0.038100
     28 H5           5.9350    -0.4410     6.8700 h4         1 EDZ       0.048100
     29 H8          -1.7460    -0.4310     3.5450 hc         1 EDZ       0.062200
     30 H9          -0.2220    -0.5840     4.4300 hc         1 EDZ       0.062200
@<TRIPOS>BOND
     1     1     2 ar
     2     1     3 ar
     3     2     4 ar
     4     3     8 ar
     5     4    10 ar
     6     5     9 2
     7     5    11 1
     8     6    27 1
     9     6    16 1
    10    27     8 1
    11     7    13 1
    12     7    14 1
    13     7    15 2
    14     8    10 ar
    15     9    13 1
    16     9    17 1
    17    10    14 1
    18    11    12 2
    19    12    17 1
    20     1    18 1
    21     2    19 1
    22     3    20 1
    23     4    21 1
    24     5    28 1
    25     6    22 1
    26     6    23 1
    27    27    29 1
    28    27    30 1
    29    13    24 1
    30    14    25 1
    31    16    26 1
@<TRIPOS>SUBSTRUCTURE
     1 EDZ         1 TEMP              0 ****  ****    0 ROOT
