@<TRIPOS>MOLECULE
EE2
   47    48     1     0     0
SMALL
bcc


@<TRIPOS>ATOM
      1 C1          0.0760    2.0200    0.5490 c2        1 EE2     -0.164000
      2 C2          2.4380   -2.3480    1.0110 c1        1 EE2     -0.072000
      3 C3          0.0740    1.1160    1.4710 c1        1 EE2     -0.387000
      4 C4         -2.7350   -0.5850    2.0140 c3        1 EE2     -0.224000
      5 C5          1.6920   -1.2870    1.2520 c2        1 EE2     -0.279000
      6 C6         -3.8730   -0.9450    1.2020 c1        1 EE2     -0.121000
      7 C7          0.1490    0.2120    2.4530 c2        1 EE2      0.089000
      8 C8         -2.8980    0.4130    3.1020 c2        1 EE2      0.087000
      9 C9         -4.1020    1.0650    3.2280 c2        1 EE2     -0.231000
     10 C10         0.8570   -1.0060    2.3780 c2        1 EE2     -0.423000
     11 C11        -5.0950   -0.2430    1.3760 c2        1 EE2     -0.012000
     12 C12        -5.1920    0.7570    2.3280 c2        1 EE2      0.075000
     13 C13        -0.4750    0.5540    3.7490 c2        1 EE2     -0.102000
     14 C14        -1.7940    0.6580    4.0110 c2        1 EE2     -0.115000
     15 C15        -4.4140    2.0440    4.2730 c2        1 EE2      0.366000
     16 C16        -8.7900   -3.0010   -2.6830 c2        1 EE2      0.328000
     17 C17         0.6360   -2.0890    3.3530 c3        1 EE2     -0.099000
     18 C18        -6.1720    2.8110    2.8430 c3        1 EE2      0.103000
     19 C19         0.4470    0.8780    4.8690 c1        1 EE2      0.027000
     20 C20        -6.0850   -1.5930   -0.3110 c3        1 EE2     -0.010000
     21 C22        -7.4320   -1.7050   -1.0050 c3        1 EE2     -0.149000
     22 O23        -3.8690    2.2650    5.3550 o         1 EE2     -0.311000
     23 O24        -9.7500   -3.2900   -1.9100 o         1 EE2     -0.592500
     24 O25        -5.5370    2.8420    4.1080 os        1 EE2     -0.300000
     25 O26        -8.9110   -2.9180   -3.9410 o         1 EE2     -0.592500
     26 O27        -6.3770    1.4580    2.4810 os        1 EE2     -0.199000
     27 O28        -6.2120   -0.4890    0.6120 os        1 EE2     -0.202000
     28 O29         1.6880    0.5360    4.8200 oh        1 EE2     -0.182000
     29 H1         -5.5590    3.3580    2.0810 h2        1 EE2      0.110500
     30 H2          0.8670    2.7820    0.4530 ha        1 EE2      0.068000
     31 H3         -0.7140    2.0990   -0.2150 ha        1 EE2      0.068000
     32 H5          1.7220   -0.4840    0.4780 ha        1 EE2      0.167000
     33 H4         -1.9410   -0.1800    1.2850 hc        1 EE2      0.215000
     34 H6         -2.2450   -1.5240    2.4160 hc        1 EE2      0.215000
     35 H14        -2.0950    0.9720    5.0330 ha        1 EE2      0.167000
     36 H171       -0.2160   -2.7500    3.0460 hc        1 EE2      0.035667
     37 H172        1.5470   -2.7340    3.4410 hc        1 EE2      0.035667
     38 H19         0.3960   -1.6890    4.3730 hc        1 EE2      0.035667
     39 H211       -6.6840   -2.4750   -2.8890 hc        1 EE2      0.062000
     40 H212       -7.0440   -3.7370   -1.6400 hc        1 EE2      0.062000
     41 H181       -5.2580   -1.3680   -1.0320 h1        1 EE2      0.080500
     42 H182       -7.1950    3.2480    2.9920 h2        1 EE2      0.110500
     43 H29         1.9810    0.0400    4.0120 ho        1 EE2      0.216000
     44 H221       -5.8310   -2.5210    0.2620 h1        1 EE2      0.080500
     45 H222       -7.7020   -0.7150   -1.4560 hc        1 EE2      0.091500
     46 H20        -8.2290   -1.9580   -0.2580 hc        1 EE2      0.091500
     47 C21        -7.3960   -2.7680   -2.0760 c3        1 EE2     -0.218000
@<TRIPOS>BOND
     1    1    3 1   
     2    1   30 1   
     3    1   31 1   
     4    2    5 1   
     5    3    7 1   
     6    4    6 1   
     7    4    8 1   
     8    4   33 1   
     9    4   34 1   
    10    5   10 1   
    11    5   32 1   
    12    6   11 1   
    13    7   10 1   
    14    7   13 1   
    15    8    9 1   
    16    8   14 1   
    17    9   12 1   
    18    9   15 1   
    19   10   17 1   
    20   11   12 1   
    21   11   27 1   
    22   12   26 1   
    23   13   14 1   
    24   13   19 1   
    25   14   35 1   
    26   15   22 1   
    27   15   24 1   
    28   16   23 1   
    29   16   25 1   
    30   16   47 1   
    31   17   36 1   
    32   17   37 1   
    33   17   38 1   
    34   18   24 1   
    35   18   26 1   
    36   18   29 1   
    37   18   42 1   
    38   19   28 1   
    39   20   21 1   
    40   20   27 1   
    41   20   41 1   
    42   20   44 1   
    43   21   45 1   
    44   21   46 1   
    45   21   47 1   
    46   28   43 1   
    47   39   47 1   
    48   40   47 1   
@<TRIPOS>SUBSTRUCTURE
     1 EE2         1 TEMP              0 ****  ****    0 ROOT
