@<TRIPOS>MOLECULE
molecule
   47    50     1     0     0
SMALL
bcc


@<TRIPOS>ATOM
      1 C1           0.0000     0.0000     0.0000 ca         1 EE2      -0.131000
      2 C2           1.3850     0.0000     0.0000 ca         1 EE2      -0.154000
      3 C3          -0.6910    -0.0000     1.1910 ca         1 EE2      -0.107000
      4 C4          -2.7330    -1.3380     2.2830 ca         1 EE2      -0.126000
      5 C5           2.0800     0.0000     1.1940 ca         1 EE2      -0.130000
      6 C6          -3.7150    -1.5740     1.3440 ca         1 EE2      -0.174000
      7 C7           0.0050    -0.0010     2.4090 ca         1 EE2      -0.011800
      8 C8          -2.8430    -0.2560     3.1560 ca         1 EE2      -0.106800
      9 C9          -3.9670     0.5960     3.0720 ca         1 EE2      -0.043600
     10 C10          1.3990    -0.0020     2.3980 ca         1 EE2      -0.109300
     11 C11         -4.8230    -0.7410     1.2510 ca         1 EE2       0.071100
     12 C12         -4.9560     0.3430     2.1130 ca         1 EE2       0.066100
     13 C13         -0.5030    -0.0020     3.7920 ce         1 EE2      -0.146400
     14 C14         -1.7970    -0.0020     4.1570 cf         1 EE2       0.037800
     15 C15         -4.0980     1.7420     3.9850 c          1 EE2       0.893200
     16 C16         -8.9930    -2.0390    -2.3550 c          1 EE2       0.892600
     17 C17          1.9180    -0.0040     3.8160 c3         1 EE2      -0.053100
     18 C18         -6.8090     1.1050     0.8370 c3         1 EE2       0.099400
     19 C19          0.6820    -0.0020     4.7270 c3         1 EE2       0.195300
     20 C20         -7.0450    -0.3710     0.4870 c3         1 EE2       0.099100
     21 C22         -7.8560    -0.4730    -0.8060 c3         1 EE2      -0.057400
     22 O23         -4.7260     1.5910     5.1680 o          1 EE2      -0.833800
     23 O24         -9.2640    -1.0400    -2.9790 o          1 EE2      -0.865800
     24 O25         -3.6390     2.8220     3.6730 o          1 EE2      -0.833800
     25 O26         -9.4030    -3.2380    -2.7990 o          1 EE2      -0.865800
     26 O27         -6.0360     1.1610     2.0410 os         1 EE2      -0.295900
     27 O28         -5.7690    -0.9980     0.3080 os         1 EE2      -0.321900
     28 O29          0.6690    -1.1750     5.5430 oh         1 EE2      -0.599800
     29 H1          -0.5410     0.0000    -0.9390 ha         1 EE2       0.127000
     30 H2           1.9250     0.0000    -0.9390 ha         1 EE2       0.109000
     31 H3          -1.7740    -0.0000     1.1880 ha         1 EE2       0.180000
     32 H5           3.1630     0.0000     1.1880 ha         1 EE2       0.104000
     33 H4          -1.8740    -1.9950     2.3430 ha         1 EE2       0.125000
     34 H6          -3.6210    -2.4170     0.6700 ha         1 EE2       0.129000
     35 H14         -2.0680     0.1580     5.1940 ha         1 EE2       0.156000
     36 H171         2.5080    -0.8950     3.9940 hc         1 EE2       0.043700
     37 H172         2.5110     0.8850     3.9950 hc         1 EE2       0.043700
     38 H19          0.6730     0.8900     5.3420 h1         1 EE2       0.039700
     39 H211        -7.2770    -2.5080    -1.1860 hc         1 EE2       0.037200
     40 H212        -8.7740    -2.3380    -0.2600 hc         1 EE2       0.037200
     41 H181        -6.2670     1.5870     0.0330 h1         1 EE2       0.057200
     42 H182        -7.7610     1.5990     0.9910 h1         1 EE2       0.057200
     43 H29          1.0600    -0.9810     6.3790 ho         1 EE2       0.383000
     44 H221        -7.2750    -0.0750    -1.6290 hc         1 EE2       0.055200
     45 H222        -8.7720     0.0950    -0.7030 hc         1 EE2       0.055200
     46 H20         -7.5770    -0.8560     1.2970 h1         1 EE2       0.054700
     47 C21         -8.1930    -1.9400    -1.0830 c3         1 EE2      -0.180400
@<TRIPOS>BOND
     1     1     2 ar
     2     1     3 ar
     3     2     5 ar
     4     3     7 ar
     5     4     6 ar
     6     4     8 ar
     7     5    10 ar
     8     6    11 ar
     9     7    10 ar
    10     7    13 1
    11     8     9 ar
    12     8    14 1
    13     9    12 ar
    14     9    15 1
    15    10    17 1
    16    11    12 ar
    17    11    27 1
    18    12    26 1
    19    13    14 2
    20    13    19 1
    21    15    22 1
    22    15    24 1
    23    16    47 1
    24    16    23 1
    25    16    25 1
    26    17    19 1
    27    18    20 1
    28    18    26 1
    29    19    28 1
    30    20    21 1
    31    20    27 1
    32    47    21 1
    33     1    29 1
    34     2    30 1
    35     3    31 1
    36     5    32 1
    37     4    33 1
    38     6    34 1
    39    14    35 1
    40    17    36 1
    41    17    37 1
    42    19    38 1
    43    47    39 1
    44    47    40 1
    45    18    41 1
    46    18    42 1
    47    28    43 1
    48    21    44 1
    49    21    45 1
    50    20    46 1
@<TRIPOS>SUBSTRUCTURE
     1 EE2         1 TEMP              0 ****  ****    0 ROOT
