@<TRIPOS>MOLECULE
EE4
   71    75     1     0     0
SMALL
bcc


@<TRIPOS>ATOM
      1 C10          0.0000     0.0000     0.0000 ca         1 EE4      -0.056500
      2 C13          1.4050     0.0120     2.4020 ca         1 EE4      -0.076500
      3 C15         -0.7310     0.0170     3.6850 c          1 EE4       0.596700
      4 C21         -0.5020     0.0970     8.5240 c3         1 EE4       0.130800
      5 C22          0.0710    -0.5790     7.2610 c3         1 EE4      -0.007300
      6 C24          0.8180    -2.7950     7.9430 c          1 EE4       0.610700
      7 C26          0.6410    -4.2600     8.0080 ca         1 EE4      -0.217600
      8 C28          1.4160    -6.4300     8.7000 ca         1 EE4      -0.287900
      9 C01          4.8390     5.8840    -1.4920 c3         1 EE4       0.011900
     10 C02          3.8900     4.6840    -1.4500 c3         1 EE4      -0.034400
     11 C03          4.7070     3.3910    -1.4140 c3         1 EE4       0.202400
     12 C05          4.4040     1.0350    -1.3300 ca         1 EE4       0.174100
     13 C06          3.6030    -0.1160    -1.2850 ca         1 EE4      -0.202600
     14 C07          2.1350     0.0020    -1.2820 c          1 EE4       0.664300
     15 C09          1.3960     0.0000     0.0000 ca         1 EE4      -0.152600
     16 C11         -0.6890     0.0040     1.1940 ca         1 EE4      -0.076500
     17 C12          0.0090     0.0110     2.4020 ca         1 EE4      -0.134600
     18 C14          2.0940     0.0000     1.2090 ca         1 EE4      -0.056500
     19 C18         -0.7880     0.0280     6.1200 c3         1 EE4      -0.000300
     20 C19         -1.0070     1.4750     6.6290 c3         1 EE4       0.133800
     21 C27          1.5930    -5.0460     8.6450 ca         1 EE4       0.068000
     22 C29          0.2750    -7.0130     8.1110 ca         1 EE4      -0.167200
     23 C32          2.1910    -7.5280     9.2700 cc         1 EE4       0.452800
     24 C33         -0.6730    -6.2030     7.4870 ca         1 EE4      -0.125000
     25 C34         -0.4910    -4.8550     7.4310 ca         1 EE4      -0.041000
     26 C35          4.2080    -1.3780    -1.2440 ca         1 EE4       0.141900
     27 C37          5.5900    -1.4800    -1.2480 ca         1 EE4       0.080100
     28 C39          7.6080    -2.7370    -1.2020 c3         1 EE4       0.244700
     29 C40          6.3730    -0.3350    -1.2930 ca         1 EE4      -0.130000
     30 C41          5.7840     0.9140    -1.3390 ca         1 EE4      -0.186000
     31 F36          3.4470    -2.4930    -1.2000 f          1 EE4      -0.112900
     32 N17         -0.0560     0.0220     4.8520 ns         1 EE4      -0.191900
     33 N20         -1.1640     1.3410     8.0930 n7         1 EE4      -0.578200
     34 N23         -0.1050    -2.0320     7.3250 ns         1 EE4      -0.191900
     35 N30          0.3730    -8.3610     8.3200 na         1 EE4       0.421900
     36 N31          1.5480    -8.6340     9.0270 nd         1 EE4      -0.636100
     37 O08          1.5310     0.1010    -2.3330 o          1 EE4      -0.530100
     38 O16         -1.9460     0.0160     3.6850 o          1 EE4      -0.642100
     39 O25          1.7970    -2.2790     8.4470 o          1 EE4      -0.659100
     40 O38          6.1800    -2.7050    -1.2020 os         1 EE4      -0.292900
     41 H1          -0.5420    -0.0050    -0.9380 ha         1 EE4       0.121000
     42 H2           1.9460     0.0120     3.3400 ha         1 EE4       0.118000
     43 H3           0.3010     0.3280     9.2140 h1         1 EE4       0.026700
     44 H4          -1.2230    -0.5590     8.9960 h1         1 EE4       0.026700
     45 H5           1.1150    -0.3190     7.1300 h1         1 EE4       0.059700
     46 H6           5.4580     5.8240    -2.3780 hc         1 EE4       0.003033
     47 H7           5.4680     5.8780    -0.6100 hc         1 EE4       0.003033
     48 H8           4.2610     6.8000    -1.5160 hc         1 EE4       0.003033
     49 H9           3.2610     4.6900    -2.3320 hc         1 EE4       0.025200
     50 H10          3.2700     4.7440    -0.5640 hc         1 EE4       0.025200
     51 H11          5.3270     3.3310    -2.3000 h1         1 EE4       0.002200
     52 H12          5.3350     3.3920    -0.5320 h1         1 EE4       0.002200
     53 H13         -1.7720     0.0040     1.1940 ha         1 EE4       0.118000
     54 H14          3.1770     0.0000     1.2090 ha         1 EE4       0.121000
     55 H15         -1.7330    -0.4950     6.0320 h1         1 EE4       0.075700
     56 H16         -0.1450     2.0880     6.3990 h1         1 EE4       0.022200
     57 H17         -1.9050     1.8950     6.1920 h1         1 EE4       0.022200
     58 H18          2.5290    -4.6070     8.9690 ha         1 EE4       0.125000
     59 H19          3.1310    -7.4390     9.8000 h4         1 EE4       0.017800
     60 H20         -1.5520    -6.6490     7.0370 ha         1 EE4       0.108000
     61 H21         -1.2290    -4.2340     6.9360 ha         1 EE4       0.102000
     62 H22          7.9820    -2.2000    -0.3390 h1         1 EE4      -0.001633
     63 H23          7.9460    -3.7650    -1.1610 h1         1 EE4      -0.001633
     64 H24          7.9800    -2.2710    -2.1060 h1         1 EE4      -0.001633
     65 H25          7.4520    -0.4220    -1.2970 ha         1 EE4       0.124000
     66 H26          6.4040     1.8020    -1.3740 ha         1 EE4       0.127000
     67 H27          0.9440     0.0510     4.8510 hn         1 EE4       0.184500
     68 H28         -0.7350     2.1220     8.5470 hn         1 EE4       0.254800
     69 H30         -0.9240    -2.4540     6.9340 hn         1 EE4       0.187500
     70 H31         -0.2920    -9.0450     8.0150 hn         1 EE4       0.153700
     71 O04          3.8280     2.2640    -1.3710 os         1 EE4      -0.298900
@<TRIPOS>BOND
     1     1    15 ar  
     2     1    16 ar  
     3     1    41 1   
     4     2    17 ar  
     5     2    18 ar  
     6     2    42 1   
     7     3    17 1   
     8     3    32 1   
     9     3    38 2   
    10     4     5 1   
    11     4    33 1   
    12     4    43 1   
    13     4    44 1   
    14     5    19 1   
    15     5    34 1   
    16     5    45 1   
    17     6     7 1   
    18     6    34 1   
    19     6    39 2   
    20     7    21 ar  
    21     7    25 ar  
    22     8    21 ar  
    23     8    22 ar  
    24     8    23 1   
    25     9    10 1   
    26     9    46 1   
    27     9    47 1   
    28     9    48 1   
    29    10    11 1   
    30    10    49 1   
    31    10    50 1   
    32    11    51 1   
    33    11    52 1   
    34    11    71 1   
    35    12    13 ar  
    36    12    30 ar  
    37    12    71 1   
    38    13    14 1   
    39    13    26 ar  
    40    14    15 1   
    41    14    37 2   
    42    15    18 ar  
    43    16    17 ar  
    44    16    53 1   
    45    18    54 1   
    46    19    20 1   
    47    19    32 1   
    48    19    55 1   
    49    20    33 1   
    50    20    56 1   
    51    20    57 1   
    52    21    58 1   
    53    22    24 ar  
    54    22    35 1   
    55    23    36 2   
    56    23    59 1   
    57    24    25 ar  
    58    24    60 1   
    59    25    61 1   
    60    26    27 ar  
    61    26    31 1   
    62    27    29 ar  
    63    27    40 1   
    64    28    40 1   
    65    28    62 1   
    66    28    63 1   
    67    28    64 1   
    68    29    30 ar  
    69    29    65 1   
    70    30    66 1   
    71    32    67 1   
    72    33    68 1   
    73    34    69 1   
    74    35    36 1   
    75    35    70 1   
@<TRIPOS>SUBSTRUCTURE
     1 EE4         1 TEMP              0 ****  ****    0 ROOT
