@<TRIPOS>MOLECULE
molecule
   71    75     1     0     0
SMALL
bcc


@<TRIPOS>ATOM
      1 C10          0.0000     0.0000     0.0000 ca         1 EE4      -0.085000
      2 C13          1.4050     0.0120     2.4020 ca         1 EE4      -0.102500
      3 C15         -0.7310     0.0170     3.6850 c          1 EE4       0.672700
      4 C21         -0.5020     0.0970     8.5240 c3         1 EE4       0.132800
      5 C22          0.0710    -0.5790     7.2610 c3         1 EE4       0.083700
      6 C24          0.8180    -2.7950     7.9430 c          1 EE4       0.683700
      7 C26          0.6410    -4.2600     8.0080 ca         1 EE4      -0.200600
      8 C28          1.4160    -6.4300     8.7000 ca         1 EE4      -0.270900
      9 C01          4.8390     5.8840    -1.4920 c3         1 EE4      -0.091100
     10 C02          3.8900     4.6840    -1.4500 c3         1 EE4      -0.084400
     11 C03          4.7070     3.3910    -1.4140 c3         1 EE4       0.138400
     12 C05          4.4040     1.0350    -1.3300 ca         1 EE4       0.164100
     13 C06          3.6030    -0.1160    -1.2850 ca         1 EE4      -0.200600
     14 C07          2.1350     0.0020    -1.2820 c          1 EE4       0.608300
     15 C09          1.3960     0.0000     0.0000 ca         1 EE4      -0.140600
     16 C11         -0.6890     0.0040     1.1940 ca         1 EE4      -0.102500
     17 C12          0.0090     0.0110     2.4020 ca         1 EE4      -0.123600
     18 C14          2.0940     0.0000     1.2090 ca         1 EE4      -0.085000
     19 C18         -0.7880     0.0280     6.1200 c3         1 EE4       0.094700
     20 C19         -1.0070     1.4750     6.6290 c3         1 EE4       0.133800
     21 C27          1.5930    -5.0460     8.6450 ca         1 EE4       0.017000
     22 C29          0.2750    -7.0130     8.1110 ca         1 EE4      -0.000200
     23 C32          2.1910    -7.5280     9.2700 cc         1 EE4       0.389800
     24 C33         -0.6730    -6.2030     7.4870 ca         1 EE4      -0.164000
     25 C34         -0.4910    -4.8550     7.4310 ca         1 EE4      -0.062000
     26 C35          4.2080    -1.3780    -1.2440 ca         1 EE4       0.169900
     27 C37          5.5900    -1.4800    -1.2480 ca         1 EE4       0.066100
     28 C39          7.6080    -2.7370    -1.2020 c3         1 EE4       0.128700
     29 C40          6.3730    -0.3350    -1.2930 ca         1 EE4      -0.146000
     30 C41          5.7840     0.9140    -1.3390 ca         1 EE4      -0.203000
     31 F36          3.4470    -2.4930    -1.2000 f          1 EE4      -0.115900
     32 N17         -0.0560     0.0220     4.8520 ns         1 EE4      -0.577900
     33 N20         -1.1640     1.3410     8.0930 n7         1 EE4      -0.806200
     34 N23         -0.1050    -2.0320     7.3250 ns         1 EE4      -0.575900
     35 N30          0.3730    -8.3610     8.3200 na         1 EE4      -0.048100
     36 N31          1.5480    -8.6340     9.0270 nd         1 EE4      -0.498100
     37 O08          1.5310     0.1010    -2.3330 o          1 EE4      -0.494100
     38 O16         -1.9460     0.0160     3.6850 o          1 EE4      -0.603100
     39 O25          1.7970    -2.2790     8.4470 o          1 EE4      -0.619100
     40 O38          6.1800    -2.7050    -1.2020 os         1 EE4      -0.315900
     41 H1          -0.5420    -0.0050    -0.9380 ha         1 EE4       0.150500
     42 H2           1.9460     0.0120     3.3400 ha         1 EE4       0.145000
     43 H3           0.3010     0.3280     9.2140 h1         1 EE4       0.059700
     44 H4          -1.2230    -0.5590     8.9960 h1         1 EE4       0.059700
     45 H5           1.1150    -0.3190     7.1300 h1         1 EE4       0.082700
     46 H6           5.4580     5.8240    -2.3780 hc         1 EE4       0.038367
     47 H7           5.4680     5.8780    -0.6100 hc         1 EE4       0.038367
     48 H8           4.2610     6.8000    -1.5160 hc         1 EE4       0.038367
     49 H9           3.2610     4.6900    -2.3320 hc         1 EE4       0.058700
     50 H10          3.2700     4.7440    -0.5640 hc         1 EE4       0.058700
     51 H11          5.3270     3.3310    -2.3000 h1         1 EE4       0.036200
     52 H12          5.3350     3.3920    -0.5320 h1         1 EE4       0.036200
     53 H13         -1.7720     0.0040     1.1940 ha         1 EE4       0.145000
     54 H14          3.1770     0.0000     1.2090 ha         1 EE4       0.150500
     55 H15         -1.7330    -0.4950     6.0320 h1         1 EE4       0.100700
     56 H16         -0.1450     2.0880     6.3990 h1         1 EE4       0.054200
     57 H17         -1.9050     1.8950     6.1920 h1         1 EE4       0.054200
     58 H18          2.5290    -4.6070     8.9690 ha         1 EE4       0.159000
     59 H19          3.1310    -7.4390     9.8000 h4         1 EE4       0.067800
     60 H20         -1.5520    -6.6490     7.0370 ha         1 EE4       0.135000
     61 H21         -1.2290    -4.2340     6.9360 ha         1 EE4       0.130000
     62 H22          7.9820    -2.2000    -0.3390 h1         1 EE4       0.043033
     63 H23          7.9460    -3.7650    -1.1610 h1         1 EE4       0.043033
     64 H24          7.9800    -2.2710    -2.1060 h1         1 EE4       0.043033
     65 H25          7.4520    -0.4220    -1.2970 ha         1 EE4       0.145000
     66 H26          6.4040     1.8020    -1.3740 ha         1 EE4       0.145000
     67 H27          0.9440     0.0510     4.8510 hn         1 EE4       0.321500
     68 H28         -0.7350     2.1220     8.5470 hn         1 EE4       0.354800
     69 H30         -0.9240    -2.4540     6.9340 hn         1 EE4       0.323500
     70 H31         -0.2920    -9.0450     8.0150 hn         1 EE4       0.334700
     71 O04          3.8280     2.2640    -1.3710 os         1 EE4      -0.320900
@<TRIPOS>BOND
     1    35    36 1
     2    35    22 1
     3    36    23 2
     4    24    22 ar
     5    24    25 ar
     6    22     8 ar
     7    23     8 1
     8    25     7 ar
     9     8    21 ar
    10     7    21 ar
    11     7     6 1
    12     6    39 2
    13     6    34 1
    14    34     5 1
    15     5     4 1
    16     5    19 1
    17     4    33 1
    18    28    40 1
    19    19    32 1
    20    19    20 1
    21    33    20 1
    22    40    27 1
    23    32     3 1
    24    27    29 ar
    25    27    26 ar
    26     3    38 2
    27     3    17 1
    28    31    26 1
    29    29    30 ar
    30    16    17 ar
    31    16     1 ar
    32    26    13 ar
    33    17     2 ar
    34     1    15 ar
    35    30    12 ar
    36     2    18 ar
    37    13    12 ar
    38    13    14 1
    39    15    18 ar
    40    15    14 1
    41    12    71 1
    42    14    37 2
    43    71    11 1
    44    11    10 1
    45    10     9 1
    46     1    41 1
    47     2    42 1
    48     4    43 1
    49     4    44 1
    50     5    45 1
    51     9    46 1
    52     9    47 1
    53     9    48 1
    54    10    49 1
    55    10    50 1
    56    11    51 1
    57    11    52 1
    58    16    53 1
    59    18    54 1
    60    19    55 1
    61    20    56 1
    62    20    57 1
    63    21    58 1
    64    23    59 1
    65    24    60 1
    66    25    61 1
    67    28    62 1
    68    28    63 1
    69    28    64 1
    70    29    65 1
    71    30    66 1
    72    32    67 1
    73    33    68 1
    74    34    69 1
    75    35    70 1
@<TRIPOS>SUBSTRUCTURE
     1 EE4         1 TEMP              0 ****  ****    0 ROOT
