@<TRIPOS>MOLECULE
molecule
   82    87     1     0     0
SMALL
bcc


@<TRIPOS>ATOM
      1 C4           0.0000     0.0000     0.0000 ca         1 EE7       0.523600
      2 C5           1.3970     0.0000     0.0000 ca         1 EE7      -0.342400
      3 C6           2.0520     0.0000     1.2580 ca         1 EE7       0.717200
      4 N1           1.3220     0.0000     2.3620 nb         1 EE7      -0.825000
      5 N3          -0.6520     0.0000     1.1690 nb         1 EE7      -0.736000
      6 C2           0.0010     0.0000     2.3090 ca         1 EE7       0.720900
      7 CAG          1.9410    -0.0020    -1.3450 cc         1 EE7      -0.085200
      8 CAH          1.0380    -0.0030    -2.3070 cd         1 EE7      -0.066600
      9 CAJ          1.3650    -0.0050    -3.7780 c3         1 EE7      -0.250200
     10 CAK          1.4810    -1.4490    -4.2710 c3         1 EE7       0.725900
     11 CAP          4.1000    -0.0000     2.6360 c3         1 EE7       0.197500
     12 CAQ          5.4970     0.6090     2.4970 c3         1 EE7      -0.301900
     13 CAR          6.2100     0.5520     3.8500 c3         1 EE7      -0.283700
     14 CAT          4.9750    -1.4350     4.4820 c3         1 EE7      -0.283700
     15 CAU          4.2260    -1.4380     3.1470 c3         1 EE7      -0.301900
     16 CAW          8.5570    -0.7060     5.2010 ca         1 EE7      -0.150300
     17 CAX          9.1480     0.5000     5.5570 ca         1 EE7      -0.096000
     18 CAY         10.4730     0.7430     5.2710 ca         1 EE7      -0.104000
     19 CAZ         11.2300    -0.2270     4.6200 ca         1 EE7      -0.050200
     20 CBA         10.6290    -1.4490     4.2620 ca         1 EE7      -0.118800
     21 CBB          9.2810    -1.6750     4.5680 ca         1 EE7      -0.021300
     22 CBC          8.6280    -2.9780     4.1880 c3         1 EE7      -0.054800
     23 CBE         12.7720    -1.4980     3.6050 cc         1 EE7      -0.032800
     24 CBF         11.6250    -2.2280     3.6250 cd         1 EE7      -0.135200
     25 CBG         14.0200    -1.9280     3.0530 cg         1 EE7       0.237500
     26 CBJ         14.5800     0.8220     4.9380 c3         1 EE7       0.080800
     27 CBL         13.5320     2.5820     2.8920 c3         1 EE7       0.072800
     28 CBM         15.0540     3.1510     2.9580 c3         1 EE7       0.111500
     29 CBO         14.4200     3.8410     5.2150 c3         1 EE7       0.111500
     30 CBP         13.3130     3.0770     5.1960 c3         1 EE7       0.072800
     31 CBQ         15.3900     5.8490     3.3840 c          1 EE7       0.740100
     32 CBR         15.2430     6.8010     4.4610 c3         1 EE7       0.150900
     33 FAL          2.4980    -2.1020    -3.5670 f          1 EE7      -0.218300
     34 FAM          0.2680    -2.1130    -4.0620 f          1 EE7      -0.218300
     35 FAN          1.7840    -1.4520    -5.6370 f          1 EE7      -0.218300
     36 FBT         16.0310     7.5880     4.2110 f          1 EE7      -0.192300
     37 NAO          3.4350    -0.0010     1.3300 nu         1 EE7      -0.768900
     38 NAS          6.3060    -0.8430     4.2970 n3         1 EE7      -0.177600
     39 NBD         12.5410    -0.2760     4.2040 na         1 EE7       0.012600
     40 NBH         15.0190    -2.2510     2.6160 n1         1 EE7      -0.371800
     41 NBK         13.2800     1.9550     4.2010 n3         1 EE7      -0.594600
     42 NBN         15.0200     4.0780     3.9210 n          1 EE7      -0.747800
     43 OBS         15.7170     5.9700     2.5390 o          1 EE7      -0.256100
     44 SAI         -0.5900    -0.0080    -1.6560 ss         1 EE7      -0.083900
     45 H1          -0.5770     0.0010     3.2250 h5         1 EE7       0.063100
     46 H2           2.9920    -0.0030    -1.6050 ha         1 EE7       0.160000
     47 H3           1.7520     0.9650    -4.0630 hc         1 EE7       0.121700
     48 H4           2.1090    -0.7650    -3.9810 hc         1 EE7       0.121700
     49 H5           3.5210     0.5830     3.3410 h1         1 EE7       0.095700
     50 H6           5.4100     1.5810     2.0260 hc         1 EE7       0.166700
     51 H7           5.9270     0.7280     3.4840 hc         1 EE7       0.166700
     52 H8           6.4080    -0.4830     4.0980 h1         1 EE7       0.060700
     53 H9           7.1490     1.0870     3.7740 h1         1 EE7       0.060700
     54 H10          4.9590    -2.4370     4.8940 h1         1 EE7       0.060700
     55 H11          6.0010    -1.1370     4.3070 h1         1 EE7       0.060700
     56 H12          4.5960    -1.4170     4.1650 hc         1 EE7       0.166700
     57 H13          3.2470    -1.9020     3.1320 hc         1 EE7       0.166700
     58 H14          6.7420    -1.7880     4.9420 h1         1 EE7       0.194700
     59 H15          6.5280    -0.0650     5.2820 h1         1 EE7       0.194700
     60 H16          8.5760     1.2450     6.0970 ha         1 EE7       0.140000
     61 H17         10.9230     1.6870     5.5520 ha         1 EE7       0.145000
     62 H18          8.7450    -3.1440     3.1240 hc         1 EE7       0.045700
     63 H19          9.0960    -3.7890     4.7340 hc         1 EE7       0.045700
     64 H20          7.5740    -2.9390     4.4340 hc         1 EE7       0.045700
     65 H21         11.4810    -3.2060     3.1800 ha         1 EE7       0.152000
     66 H22         14.4250    -0.8250     6.2160 h1         1 EE7       0.084200
     67 H23         12.9510     0.2100     6.0950 h1         1 EE7       0.084200
     68 H24         15.1090     0.2930     4.1540 h1         1 EE7       0.072700
     69 H25         15.2730     1.3880     5.5480 h1         1 EE7       0.072700
     70 H26         12.8360     3.3970     2.7290 h1         1 EE7       0.049200
     71 H27         13.4440     1.8450     2.1030 h1         1 EE7       0.049200
     72 H28         15.3300     3.6010     2.0120 h1         1 EE7       0.017200
     73 H29         15.7420     2.3570     3.2230 h1         1 EE7       0.017200
     74 H30         14.1650     4.7990     5.6510 h1         1 EE7       0.017200
     75 H31         15.1560     3.3570     5.8460 h1         1 EE7       0.017200
     76 H32         13.1880     2.6490     6.1840 h1         1 EE7       0.049200
     77 H33         12.4670     3.7240     4.9960 h1         1 EE7       0.049200
     78 H34         14.2510     7.2360     4.4550 h1         1 EE7       0.042700
     79 H35         15.4550     6.3350     5.4160 h1         1 EE7       0.042700
     80 H36          3.9530    -0.7840     0.9850 hn         1 EE7       0.424800
     81 CAV          7.1050    -0.9500     5.5240 c3         1 EE7       0.028100
     82 CBI         13.8150    -0.1930     5.5820 c3         1 EE7       0.062300
@<TRIPOS>BOND
     1    40    25 3
     2    25    23 1
     3    23    39 1
     4    23    24 2
     5    82    39 1
     6    82    26 1
     7     9     8 1
     8     9    10 1
     9    39    19 1
    10    24    20 1
    11     8    44 1
    12     8     7 2
    13    44     1 1
    14     7     2 1
    15    30    29 1
    16    30    41 1
    17    35    10 1
    18    15    14 1
    19    15    11 1
    20    19    20 ar
    21    19    18 ar
    22    20    21 ar
    23     1     2 ar
    24     1     5 ar
    25    26    41 1
    26     2     3 ar
    27    10    34 1
    28    10    33 1
    29     5     6 ar
    30    14    38 1
    31    36    32 1
    32     3    37 1
    33     3     4 ar
    34    22    21 1
    35    21    16 ar
    36    18    17 ar
    37    29    42 1
    38    37    11 1
    39     6     4 ar
    40    41    27 1
    41    11    12 1
    42    32    31 1
    43    16    17 ar
    44    16    81 1
    45    38    81 1
    46    38    13 1
    47    27    28 1
    48    42    31 1
    49    42    28 1
    50    31    43 2
    51    12    13 1
    52     6    45 1
    53     7    46 1
    54     9    47 1
    55     9    48 1
    56    11    49 1
    57    12    50 1
    58    12    51 1
    59    13    52 1
    60    13    53 1
    61    14    54 1
    62    14    55 1
    63    15    56 1
    64    15    57 1
    65    81    58 1
    66    81    59 1
    67    17    60 1
    68    18    61 1
    69    22    62 1
    70    22    63 1
    71    22    64 1
    72    24    65 1
    73    82    66 1
    74    82    67 1
    75    26    68 1
    76    26    69 1
    77    27    70 1
    78    27    71 1
    79    28    72 1
    80    28    73 1
    81    29    74 1
    82    29    75 1
    83    30    76 1
    84    30    77 1
    85    32    78 1
    86    32    79 1
    87    37    80 1
@<TRIPOS>SUBSTRUCTURE
     1 EE7         1 TEMP              0 ****  ****    0 ROOT
