@<TRIPOS>MOLECULE
molecule
   26    26     1     0     0
SMALL
bcc


@<TRIPOS>ATOM
      1 C1           0.0000     0.0000     0.0000 ca         1 EE8       0.024600
      2 C2           1.3890     0.0000     0.0000 ca         1 EE8      -0.122000
      3 C3          -0.6940     0.0000     1.2030 ca         1 EE8      -0.086000
      4 C13          1.2840    -0.0000     4.7750 c3         1 EE8       0.134400
      5 C14          2.2150    -0.0000     5.9900 c3         1 EE8      -0.092100
      6 N4          -0.7010     0.0060    -1.2140 ns         1 EE8      -0.478100
      7 C5           2.0790     0.0000     1.1970 ca         1 EE8       0.010400
      8 C6          -0.0030    -0.0060     2.3990 ca         1 EE8      -0.198000
      9 C7          -1.8790     0.6510    -1.3080 c          1 EE8       0.657100
     10 C8           1.3830     0.0000     2.3990 ca         1 EE8       0.137100
     11 Cl9          3.8140     0.0070     1.1980 cl         1 EE8      -0.092400
     12 C10         -2.6890     0.5590    -2.5750 c3         1 EE8      -0.171100
     13 O11         -2.2880     1.3070    -0.3730 o          1 EE8      -0.595100
     14 O12          2.0630    -0.0000     3.5770 os         1 EE8      -0.318900
     15 H1           1.9310    -0.0000    -0.9380 ha         1 EE8       0.146000
     16 H2          -1.7770    -0.0020     1.2040 ha         1 EE8       0.164000
     17 H3           0.6540    -0.8810     4.8030 h1         1 EE8       0.035200
     18 H4           0.6640     0.8880     4.7960 h1         1 EE8       0.035200
     19 H5           1.6240    -0.0000     6.8980 hc         1 EE8       0.049033
     20 H6           2.8400     0.8840     5.9660 hc         1 EE8       0.049033
     21 H7           2.8400    -0.8850     5.9650 hc         1 EE8       0.049033
     22 H8          -0.3380    -0.4920    -2.0030 hn         1 EE8       0.324500
     23 H9          -0.5450    -0.0050     3.3370 ha         1 EE8       0.146000
     24 H10         -2.1790     1.0910    -3.3690 hc         1 EE8       0.063367
     25 H11         -3.6650     1.0010    -2.4130 hc         1 EE8       0.063367
     26 H12         -2.8060    -0.4810    -2.8550 hc         1 EE8       0.063367
@<TRIPOS>BOND
     1    11     7 1
     2     5     4 1
     3    14    10 1
     4    14     4 1
     5     7    10 ar
     6     7     2 ar
     7    10     8 ar
     8     2     1 ar
     9     8     3 ar
    10     1     3 ar
    11     1     6 1
    12     6     9 1
    13     9    13 2
    14     9    12 1
    15     2    15 1
    16     3    16 1
    17     4    17 1
    18     4    18 1
    19     5    19 1
    20     5    20 1
    21     5    21 1
    22     6    22 1
    23     8    23 1
    24    12    24 1
    25    12    25 1
    26    12    26 1
@<TRIPOS>SUBSTRUCTURE
     1 EE8         1 TEMP              0 ****  ****    0 ROOT
