@<TRIPOS>MOLECULE
EE8
   26    26     1     0     0
SMALL
bcc


@<TRIPOS>ATOM
      1 C1           0.0000     0.0000     0.0000 ca         1 EE8      -0.123400
      2 C2           1.3890     0.0000     0.0000 ca         1 EE8      -0.093000
      3 C3          -0.6940     0.0000     1.2030 ca         1 EE8      -0.054000
      4 C13          1.2840    -0.0000     4.7750 c3         1 EE8       0.202400
      5 C14          2.2150    -0.0000     5.9900 c3         1 EE8       0.001900
      6 N4          -0.7010     0.0060    -1.2140 ns         1 EE8      -0.034100
      7 C5           2.0790     0.0000     1.1970 ca         1 EE8      -0.062600
      8 C6          -0.0030    -0.0060     2.3990 ca         1 EE8      -0.185000
      9 C7          -1.8790     0.6510    -1.3080 c          1 EE8       0.557100
     10 C8           1.3830     0.0000     2.3990 ca         1 EE8       0.148100
     11 Cl9          3.8140     0.0070     1.1980 cl         1 EE8      -0.008400
     12 C10         -2.6890     0.5590    -2.5750 c3         1 EE8      -0.069100
     13 O11         -2.2880     1.3070    -0.3730 o          1 EE8      -0.636100
     14 O12          2.0630    -0.0000     3.5770 os         1 EE8      -0.298900
     15 H1           1.9310    -0.0000    -0.9380 ha         1 EE8       0.116000
     16 H2          -1.7770    -0.0020     1.2040 ha         1 EE8       0.139000
     17 H3           0.6540    -0.8810     4.8030 h1         1 EE8       0.000700
     18 H4           0.6640     0.8880     4.7960 h1         1 EE8       0.000700
     19 H5           1.6240    -0.0000     6.8980 hc         1 EE8       0.011700
     20 H6           2.8400     0.8840     5.9660 hc         1 EE8       0.011700
     21 H7           2.8400    -0.8850     5.9650 hc         1 EE8       0.011700
     22 H8          -0.3380    -0.4920    -2.0030 hn         1 EE8       0.166500
     23 H9          -0.5450    -0.0050     3.3370 ha         1 EE8       0.125000
     24 H10         -2.1790     1.0910    -3.3690 hc         1 EE8       0.024033
     25 H11         -3.6650     1.0010    -2.4130 hc         1 EE8       0.024033
     26 H12         -2.8060    -0.4810    -2.8550 hc         1 EE8       0.024033
@<TRIPOS>BOND
     1     1     2 ar  
     2     1     3 ar  
     3     1     6 1   
     4     2     7 ar  
     5     2    15 1   
     6     3     8 ar  
     7     3    16 1   
     8     4     5 1   
     9     4    14 1   
    10     4    17 1   
    11     4    18 1   
    12     5    19 1   
    13     5    20 1   
    14     5    21 1   
    15     6     9 1   
    16     6    22 1   
    17     7    10 ar  
    18     7    11 1   
    19     8    10 ar  
    20     8    23 1   
    21     9    12 1   
    22     9    13 2   
    23    10    14 1   
    24    12    24 1   
    25    12    25 1   
    26    12    26 1   
@<TRIPOS>SUBSTRUCTURE
     1 EE8         1 TEMP              0 ****  ****    0 ROOT
