@<TRIPOS>MOLECULE
EEA
   71    73     1     0     0
SMALL
bcc


@<TRIPOS>ATOM
      1 C1         -0.6670    0.9890    0.3520 c3        1 EEA     -0.158400
      2 CL1         8.3060   -6.3540    6.8160 cl        1 EEA     -0.083400
      3 C2          0.8530    0.9140    0.4310 c3        1 EEA     -0.100700
      4 O2         -0.4310    2.4840   -1.5940 o         1 EEA     -0.405100
      5 C3          1.2670    0.3380    1.7150 cc        1 EEA      0.207000
      6 C4          2.1440   -0.6430    2.1170 cd        1 EEA     -0.296600
      7 C5          2.0600   -0.6300    3.5870 cd        1 EEA      0.397800
      8 C6          2.8150   -1.4960    4.4740 ca        1 EEA     -0.158500
      9 C7          3.3190   -2.7150    3.9980 ca        1 EEA     -0.094000
     10 C8          4.0500   -3.5480    4.8370 ca        1 EEA     -0.123500
     11 C9          4.2920   -3.1820    6.1700 cp        1 EEA     -0.004000
     12 C10         3.7840   -1.9640    6.6440 ca        1 EEA     -0.123500
     13 C11         3.0520   -1.1270    5.8060 ca        1 EEA     -0.094000
     14 C12        -1.0950    1.8650   -0.7810 c         1 EEA      0.562100
     15 N12         1.1670    0.3160    3.9570 nc        1 EEA     -0.339300
     16 O12         0.6870    0.9060    2.8830 os        1 EEA     -0.145100
     17 C18         5.0630   -4.0580    7.0510 cp        1 EEA     -0.046000
     18 C19         6.1970   -4.7210    6.5640 ca        1 EEA     -0.111000
     19 C20         6.9290   -5.5560    7.4120 ca        1 EEA      0.016400
     20 C21         6.5400   -5.7420    8.7420 ca        1 EEA     -0.112000
     21 C22         5.4100   -5.0810    9.2200 ca        1 EEA     -0.120000
     22 C23         4.6740   -4.2430    8.3850 ca        1 EEA     -0.114000
     23 N2         -2.6070    2.0280   -0.9500 n4        1 EEA     -0.687800
     24 C13        -3.2250    0.7720   -1.4990 c3        1 EEA     -0.007500
     25 C14        -3.8390    1.0200   -2.8860 c         1 EEA      0.520100
     26 O1         -3.9090    2.1400   -3.3890 o         1 EEA     -0.467100
     27 C15        -4.2410    0.1310   -0.5300 c3        1 EEA     -0.083400
     28 C16        -3.8800   -1.3220   -0.2610 c3        1 EEA     -0.208400
     29 C17        -3.6530   -2.0150   -1.6030 c         1 EEA      0.882600
     30 O4         -4.6080   -2.5940   -2.1780 o         1 EEA     -0.822300
     31 O4E        -2.5400   -1.7940   -2.2020 o         1 EEA     -0.822300
     32 N1         -4.2960   -0.1850   -3.6320 n4        1 EEA     -0.461600
     33 C24        -4.8570    0.0870   -4.9350 c2        1 EEA     -0.393200
     34 C28        -6.2040    0.4850   -4.9350 c2        1 EEA      0.557300
     35 O9         -6.9470    0.7070   -3.9580 o         1 EEA     -0.630300
     36 C25        -3.9980   -0.1390   -6.1220 c3        1 EEA      0.018800
     37 C26        -3.2490    1.1020   -6.5880 c3        1 EEA     -0.197400
     38 C27        -3.9090    1.7710   -7.7550 c         1 EEA      0.654100
     39 O8         -3.1960    2.5910   -8.5660 oh        1 EEA     -0.544100
     40 O8E        -5.1000    1.6730   -8.0840 o         1 EEA     -0.573000
     41 N9         -6.8990    0.6720   -6.2590 n4        1 EEA     -0.723400
     42 H1         -1.0940   -0.0460    0.2130 hc        1 EEA      0.125200
     43 H2         -1.0730    1.4040    1.3190 hc        1 EEA      0.125200
     44 H4          1.2550    0.2840   -0.4080 hc        1 EEA      0.091700
     45 H5          1.2940    1.9450    0.3280 hc        1 EEA      0.091700
     46 H7          2.7790   -1.2910    1.5210 ha        1 EEA      0.188000
     47 H8          3.1290   -3.0220    2.9580 ha        1 EEA      0.142000
     48 H9          4.4350   -4.5070    4.4570 ha        1 EEA      0.147500
     49 H12         3.9720   -1.6630    7.6870 ha        1 EEA      0.147500
     50 H13         2.6640   -0.1740    6.1970 ha        1 EEA      0.142000
     51 H19         6.5150   -4.5750    5.5190 ha        1 EEA      0.149000
     52 H20         7.1200   -6.4030    9.4050 ha        1 EEA      0.154000
     53 H21         5.0970   -5.2250   10.2660 ha        1 EEA      0.144000
     54 H22         3.7800   -3.7300    8.7710 ha        1 EEA      0.140000
     55 H6         -3.0220    2.2440   -0.0370 hn        1 EEA      0.465300
     56 H14        -2.3620    0.0060   -1.6660 hx        1 EEA      0.217700
     57 H15        -5.2720    0.1880   -0.9700 hc        1 EEA      0.074700
     58 H16        -4.2830    0.6820    0.4470 hc        1 EEA      0.074700
     59 H17        -2.9570   -1.3920    0.3650 hc        1 EEA      0.080700
     60 H18        -4.7230   -1.8170    0.2850 hc        1 EEA      0.080700
     61 H3         -3.4860   -0.8560   -3.7130 hn        1 EEA      0.517300
     62 H23        -2.2670    2.6180   -8.2910 ho        1 EEA      0.442000
     63 H24        -4.6160   -0.5440   -6.9690 hc        1 EEA      0.070700
     64 H25        -3.2380   -0.9440   -5.9040 hc        1 EEA      0.070700
     65 H26        -3.1830    1.8540   -5.7550 hc        1 EEA      0.087200
     66 H27        -2.2020    0.8170   -6.8800 hc        1 EEA      0.087200
     67 H10        -6.6410   -0.0660   -6.9180 hn        1 EEA      0.464467
     68 H11        -7.9120    0.6710   -6.1050 hn        1 EEA      0.464467
     69 H221       -2.7910    2.8200   -1.5870 hn        1 EEA      0.465300
     70 H121       -5.0110   -0.6830   -3.0500 hn        1 EEA      0.517300
     71 H93        -6.6150    1.5720   -6.6700 hn        1 EEA      0.464467
@<TRIPOS>BOND
     1    1    3 1   
     2    1   14 1   
     3    1   42 1   
     4    1   43 1   
     5    2   19 1   
     6    3    5 1   
     7    3   44 1   
     8    3   45 1   
     9    4   14 2   
    10    5    6 2   
    11    5   16 1   
    12    6    7 1   
    13    6   46 1   
    14    7    8 1   
    15    7   15 2   
    16    8    9 ar  
    17    8   13 ar  
    18    9   10 ar  
    19    9   47 1   
    20   10   11 ar  
    21   10   48 1   
    22   11   12 ar  
    23   11   17 1   
    24   12   13 ar  
    25   12   49 1   
    26   13   50 1   
    27   14   23 1   
    28   15   16 1   
    29   17   18 ar  
    30   17   22 ar  
    31   18   19 ar  
    32   18   51 1   
    33   19   20 ar  
    34   20   21 ar  
    35   20   52 1   
    36   21   22 ar  
    37   21   53 1   
    38   22   54 1   
    39   23   24 1   
    40   23   55 1   
    41   23   69 1   
    42   24   25 1   
    43   24   27 1   
    44   24   56 1   
    45   25   26 2   
    46   25   32 1   
    47   27   28 1   
    48   27   57 1   
    49   27   58 1   
    50   28   29 1   
    51   28   59 1   
    52   28   60 1   
    53   29   30 1   
    54   29   31 1   
    55   32   33 1   
    56   32   61 1   
    57   32   70 1   
    58   33   34 2   
    59   33   36 1   
    60   34   35 1   
    61   34   41 1   
    62   36   37 1   
    63   36   63 1   
    64   36   64 1   
    65   37   38 1   
    66   37   65 1   
    67   37   66 1   
    68   38   39 1   
    69   38   40 2   
    70   39   62 1   
    71   41   67 1   
    72   41   68 1   
    73   41   71 1   
@<TRIPOS>SUBSTRUCTURE
     1 EEA         1 TEMP              0 ****  ****    0 ROOT
