@<TRIPOS>MOLECULE
EEC
   61    62     1     0     0
SMALL
bcc


@<TRIPOS>ATOM
      1 O2          0.1080   -2.1380    0.1350 o         1 EEC     -0.415100
      2 N3          3.0630    0.3160    3.1850 nc        1 EEC     -0.369300
      3 O5          2.0310   -0.0190    2.4260 os        1 EEC     -0.225100
      4 C11         0.4350   -0.9660    0.2320 c         1 EEC      0.565100
      5 C12        -0.3270    0.1610    0.8700 c3        1 EEC     -0.145400
      6 C13        -0.4310   -0.0330    2.3740 c3        1 EEC     -0.115700
      7 C14         1.1290    0.8380    4.3080 cd        1 EEC     -0.298600
      8 C16         2.6050    0.8340    4.3450 cd        1 EEC      0.431800
      9 C21         3.4100    1.3150    5.4530 ca        1 EEC     -0.173500
     10 C22         2.8700    2.2520    6.3490 ca        1 EEC     -0.090500
     11 C23         3.6330    2.7150    7.4170 ca        1 EEC     -0.130500
     12 C24         4.9360    2.2500    7.6030 ca        1 EEC     -0.092000
     13 C25         5.4760    1.3210    6.7140 ca        1 EEC     -0.130500
     14 C26         4.7210    0.8530    5.6400 ca        1 EEC     -0.090500
     15 C27         0.8090    0.2970    3.0870 cc        1 EEC      0.230000
     16 N2          1.7880   -0.6300   -0.3730 n4        1 EEC     -0.681800
     17 C7          1.6490    0.3050   -1.5390 c3        1 EEC     -0.002500
     18 C6          2.0000   -0.4000   -2.8580 c         1 EEC      0.519100
     19 O1          2.4600   -1.5390   -2.9020 o         1 EEC     -0.466100
     20 C8          2.4580    1.6090   -1.3590 c3        1 EEC     -0.085400
     21 C9          1.5580    2.8230   -1.5250 c3        1 EEC     -0.206400
     22 C10         0.7660    2.6630   -2.8200 c         1 EEC      0.882600
     23 O4E        -0.2380    1.8650   -2.8080 o         1 EEC     -0.824800
     24 O4          1.2210    3.1320   -3.8940 o         1 EEC     -0.824800
     25 N1          1.6970    0.3500   -4.1090 n4        1 EEC     -0.463600
     26 C2          2.0150   -0.3550   -5.3290 c2        1 EEC     -0.393200
     27 C1          3.3570   -0.2700   -5.7370 c2        1 EEC      0.557300
     28 O9          4.3160    0.2670   -5.1480 o         1 EEC     -0.628300
     29 C3          0.9100   -1.0260   -6.0520 c3        1 EEC      0.018800
     30 C4          0.7320   -2.4930   -5.6840 c3        1 EEC     -0.198400
     31 C5          1.3420   -3.4200   -6.6920 c         1 EEC      0.654100
     32 O8          0.9260   -4.7080   -6.7750 oh        1 EEC     -0.545100
     33 O8E         2.2420   -3.1440   -7.4980 o         1 EEC     -0.573000
     34 N9          3.7460   -0.8830   -7.0580 n4        1 EEC     -0.723400
     35 H16        -1.3630    0.1440    0.4190 hc        1 EEC      0.120700
     36 H17         0.1280    1.1620    0.6370 hc        1 EEC      0.120700
     37 H18        -1.2540    0.6340    2.7570 hc        1 EEC      0.104700
     38 H19        -0.7240   -1.0960    2.6060 hc        1 EEC      0.104700
     39 H20         0.4770    1.1920    5.1020 ha        1 EEC      0.196000
     40 H21         1.8460    2.6270    6.2050 ha        1 EEC      0.140000
     41 H22         3.2060    3.4510    8.1160 ha        1 EEC      0.148000
     42 H23         5.5360    2.6170    8.4490 ha        1 EEC      0.148000
     43 H24         6.5040    0.9530    6.8590 ha        1 EEC      0.148000
     44 H25         5.1570    0.1180    4.9460 ha        1 EEC      0.140000
     45 H3          2.3680   -0.1870    0.3590 hn        1 EEC      0.478800
     46 H9          0.5260    0.5970   -1.6160 hx        1 EEC      0.211700
     47 H10         2.9470    1.6540   -0.3490 hc        1 EEC      0.078700
     48 H11         3.2880    1.6470   -2.1150 hc        1 EEC      0.078700
     49 H12         2.1890    3.7470   -1.5760 hc        1 EEC      0.078200
     50 H13         0.8570    2.9160   -0.6590 hc        1 EEC      0.078200
     51 H1          0.6780    0.6240   -4.0980 hn        1 EEC      0.517300
     52 H2          0.2070   -4.8750   -6.1460 ho        1 EEC      0.441000
     53 H4          1.0670   -0.9350   -7.1620 hc        1 EEC      0.070700
     54 H5         -0.0660   -0.4960   -5.8500 hc        1 EEC      0.070700
     55 H6          1.2110   -2.7070   -4.6890 hc        1 EEC      0.087200
     56 H7         -0.3640   -2.7260   -5.5970 hc        1 EEC      0.087200
     57 H14         3.0410   -0.6940   -7.7730 hn        1 EEC      0.463800
     58 H15         3.8190   -1.9040   -6.9540 hn        1 EEC      0.463800
     59 H221        2.2540   -1.5040   -0.6650 hn        1 EEC      0.478800
     60 H121        2.2260    1.2540   -4.0880 hn        1 EEC      0.517300
     61 H93         4.6530   -0.5040   -7.3450 hn        1 EEC      0.463800
@<TRIPOS>BOND
     1    1    4 2
     2    2    3 1
     3    2    8 2
     4    3   15 1
     5    4    5 1
     6    4   16 1
     7    5    6 1
     8    5   35 1
     9    5   36 1
    10    6   15 1
    11    6   37 1
    12    6   38 1
    13    7    8 1
    14    7   15 2
    15    7   39 1
    16    8    9 1
    17    9   10 ar
    18    9   14 ar
    19   10   11 ar
    20   10   40 1
    21   11   12 ar
    22   11   41 1
    23   12   13 ar
    24   12   42 1
    25   13   14 ar
    26   13   43 1
    27   14   44 1
    28   16   17 1
    29   16   45 1
    30   16   59 1
    31   17   18 1
    32   17   20 1
    33   17   46 1
    34   18   19 2
    35   18   25 1
    36   20   21 1
    37   20   47 1
    38   20   48 1
    39   21   22 1
    40   21   49 1
    41   21   50 1
    42   22   23 1
    43   22   24 1
    44   25   26 1
    45   25   51 1
    46   25   60 1
    47   26   27 2
    48   26   29 1
    49   27   28 1
    50   27   34 1
    51   29   30 1
    52   29   53 1
    53   29   54 1
    54   30   31 1
    55   30   55 1
    56   30   56 1
    57   31   32 1
    58   31   33 2
    59   32   52 1
    60   34   57 1
    61   34   58 1
    62   34   61 1
@<TRIPOS>SUBSTRUCTURE
     1 EEC         1 TEMP              0 ****  ****    0 ROOT
