@<TRIPOS>MOLECULE
molecule
   51    54     1     0     0
SMALL
bcc


@<TRIPOS>ATOM
      1 C9           0.0000     0.0000     0.0000 c3         1 EED      -0.014400
      2 C10          1.4980     0.0000     0.0000 ca         1 EED      -0.078300
      3 C1           2.1610     0.0000     1.2220 ca         1 EED      -0.117000
      4 C2           3.5390     0.0220     1.2790 ca         1 EED      -0.154000
      5 C3           4.2760     0.0340     0.1050 ca         1 EED       0.104100
      6 O3           5.6330     0.0760     0.1500 oh         1 EED      -0.522100
      7 C4           3.6200     0.0050    -1.1130 ca         1 EED      -0.158000
      8 C5           2.2340    -0.0300    -1.1690 ca         1 EED      -0.059300
      9 C6           1.5920    -0.1320    -2.5290 c3         1 EED      -0.034100
     10 C7           0.1410    -0.6010    -2.4030 c3         1 EED      -0.074400
     11 C8          -0.5570     0.3160    -1.3960 c3         1 EED      -0.054700
     12 C14         -2.0320     0.0340    -1.3010 c3         1 EED      -0.069700
     13 C15         -2.8900     0.1610    -2.5620 c3         1 EED      -0.071400
     14 C16         -4.3240     0.1520    -1.9540 c3         1 EED      -0.107400
     15 C17         -4.1790     0.6760    -0.5020 c3         1 EED       0.149100
     16 O17         -5.0040     1.8220    -0.2980 oh         1 EED      -0.599800
     17 C13         -2.6960     1.0720    -0.3660 c3         1 EED      -0.065000
     18 C18         -2.5610     2.4930    -0.9160 c3         1 EED      -0.073100
     19 C12         -2.1250     0.9770     1.0220 c3         1 EED      -0.055400
     20 C11         -0.5980     0.9080     1.0560 c3         1 EED      -0.051700
     21 C19          0.0180     2.3040     0.9810 c3         1 EED       0.132400
     22 O20         -0.5030     3.1130     2.0380 os         1 EED      -0.435600
     23 C21          0.0130     4.4460     2.0580 c3         1 EED       0.130700
     24 H9          -0.3130    -1.0090     0.2420 hc         1 EED       0.058700
     25 H1           1.5880    -0.0100     2.1410 ha         1 EED       0.138000
     26 H2           4.0390     0.1270     2.2340 ha         1 EED       0.141000
     27 HO3          5.9760    -0.8010     0.1100 ho         1 EED       0.418000
     28 H4           4.1930     0.0150    -2.0320 ha         1 EED       0.139000
     29 H61          1.6110     0.8410    -3.0050 hc         1 EED       0.052700
     30 H62          2.1440    -0.8420    -3.1320 hc         1 EED       0.052700
     31 H71          0.1160    -1.6230    -2.0460 hc         1 EED       0.047700
     32 H72         -0.3520    -0.5300    -3.3650 hc         1 EED       0.047700
     33 H8          -0.3850     1.3560    -1.6460 hc         1 EED       0.067700
     34 H14         -2.1710    -0.9550    -0.8830 hc         1 EED       0.050700
     35 H151        -2.7430    -0.6880    -3.2170 hc         1 EED       0.048700
     36 H152        -2.6920     1.0960    -3.0720 hc         1 EED       0.048700
     37 H161        -4.9720     0.8080    -2.5220 hc         1 EED       0.050700
     38 H162        -4.7180    -0.8570    -1.9470 hc         1 EED       0.050700
     39 H17         -4.4260    -0.1060     0.2060 h1         1 EED       0.033700
     40 HO17        -5.7830     1.5690     0.1690 ho         1 EED       0.397000
     41 H181        -2.6940     3.2060    -0.1100 hc         1 EED       0.041033
     42 H182        -1.5770     2.6200    -1.3510 hc         1 EED       0.041033
     43 H183        -3.3160     2.6610    -1.6740 hc         1 EED       0.041033
     44 H121        -2.4430     1.8450     1.5860 hc         1 EED       0.053200
     45 H122        -2.5200     0.0860     1.4970 hc         1 EED       0.053200
     46 H11         -0.3270     0.4890     2.0170 hc         1 EED       0.052700
     47 H191         1.0950     2.2290     1.0810 h1         1 EED       0.033700
     48 H192        -0.2250     2.7560     0.0270 h1         1 EED       0.033700
     49 H211        -0.0400     4.8680     1.0620 h1         1 EED       0.029033
     50 H212         1.0440     4.4290     2.3890 h1         1 EED       0.029033
     51 H213        -0.5750     5.0500     2.7390 h1         1 EED       0.029033
@<TRIPOS>BOND
     1     1    20 1
     2     1    11 1
     3     1     2 1
     4     1    24 1
     5     2     3 ar
     6     2     8 ar
     7     3     4 ar
     8     3    25 1
     9     4     5 ar
    10     4    26 1
    11     5     7 ar
    12     5     6 1
    13     6    27 1
    14     7     8 ar
    15     7    28 1
    16     8     9 1
    17     9    10 1
    18     9    29 1
    19     9    30 1
    20    10    11 1
    21    10    31 1
    22    10    32 1
    23    11    12 1
    24    11    33 1
    25    12    17 1
    26    12    13 1
    27    12    34 1
    28    13    14 1
    29    13    35 1
    30    13    36 1
    31    14    15 1
    32    14    37 1
    33    14    38 1
    34    15    16 1
    35    15    17 1
    36    15    39 1
    37    16    40 1
    38    17    19 1
    39    17    18 1
    40    18    41 1
    41    18    42 1
    42    18    43 1
    43    19    20 1
    44    19    44 1
    45    19    45 1
    46    20    21 1
    47    20    46 1
    48    21    22 1
    49    21    47 1
    50    21    48 1
    51    22    23 1
    52    23    49 1
    53    23    50 1
    54    23    51 1
@<TRIPOS>SUBSTRUCTURE
     1 EED         1 TEMP              0 ****  ****    0 ROOT
