@<TRIPOS>MOLECULE
EED
   51    54     1     0     0
SMALL
bcc


@<TRIPOS>ATOM
      1 C9         -0.0490    0.0950    0.0010 c3        1 EED     -0.002400
      2 C10         1.4470    0.1650    0.0150 ca        1 EED     -0.106300
      3 C1          2.1300    0.4050    1.2150 ca        1 EED     -0.085000
      4 C2          3.5190    0.3930    1.2760 ca        1 EED     -0.216000
      5 C3          4.2510    0.1320    0.1100 ca        1 EED      0.122100
      6 O3          5.6280    0.1010    0.0830 oh        1 EED     -0.500100
      7 C4          3.5930   -0.1120   -1.1020 ca        1 EED     -0.166000
      8 C5          2.1950   -0.0980   -1.1480 ca        1 EED     -0.039300
      9 C6          1.5570   -0.3510   -2.4710 c3        1 EED     -0.037100
     10 C7          0.0870   -0.6880   -2.3660 c3        1 EED     -0.073400
     11 C8         -0.6040    0.2790   -1.4220 c3        1 EED     -0.047700
     12 C14        -2.0940    0.0290   -1.3610 c3        1 EED     -0.067700
     13 C15        -2.9260   -0.0200   -2.6350 c3        1 EED     -0.067400
     14 C16        -4.3620    0.2200   -2.1580 c3        1 EED     -0.117400
     15 C17        -4.2770    0.6880   -0.6870 c3        1 EED      0.140100
     16 O17        -5.1190    1.7950   -0.4240 oh        1 EED     -0.591800
     17 C13        -2.7920    1.0990   -0.4920 c3        1 EED     -0.044000
     18 C18        -2.6260    2.5140   -1.0170 c3        1 EED     -0.077100
     19 C12        -2.2700    0.9580    0.9260 c3        1 EED     -0.059400
     20 C11        -0.7440    0.9970    1.0310 c3        1 EED     -0.058700
     21 C19        -0.2210    2.4330    1.0330 c3        1 EED      0.126400
     22 O20         0.3460    2.6570    2.3290 os        1 EED     -0.434600
     23 C21         0.8540    3.9700    2.4790 c3        1 EED      0.116700
     24 H9         -0.3050   -0.9670    0.3110 hc        1 EED      0.053700
     25 H1          1.5640    0.6300    2.1340 ha        1 EED      0.153000
     26 H2          4.0360    0.5860    2.2260 ha        1 EED      0.133000
     27 HO3         5.9440    0.2770    0.9810 ho        1 EED      0.417000
     28 H4          4.1830   -0.3150   -2.0070 ha        1 EED      0.147000
     29 H61         1.6850    0.5700   -3.1040 hc        1 EED      0.052700
     30 H62         2.0950   -1.1880   -2.9940 hc        1 EED      0.052700
     31 H71        -0.0420   -1.7390   -1.9960 hc        1 EED      0.045200
     32 H72        -0.3880   -0.6280   -3.3810 hc        1 EED      0.045200
     33 H8         -0.3950    1.3260   -1.7730 hc        1 EED      0.061700
     34 H14        -2.2390   -0.9700   -0.8490 hc        1 EED      0.045700
     35 H151       -2.6070    0.7750   -3.3530 hc        1 EED      0.045700
     36 H152       -2.8260   -1.0070   -3.1480 hc        1 EED      0.045700
     37 H161       -4.9660   -0.7160   -2.2290 hc        1 EED      0.047700
     38 H162       -4.8590    1.0040   -2.7800 hc        1 EED      0.047700
     39 H17        -4.5420   -0.1530    0.0100 h1        1 EED      0.034700
     40 HO17       -6.0170    1.5090   -0.6320 ho        1 EED      0.399000
     41 H181       -1.5520    2.7990   -1.1120 hc        1 EED      0.040367
     42 H182       -3.1320    3.2300   -0.3230 hc        1 EED      0.040367
     43 H183       -3.1060    2.6080   -2.0220 hc        1 EED      0.040367
     44 H121       -2.7040    1.7680    1.5700 hc        1 EED      0.048700
     45 H122       -2.6220   -0.0240    1.3420 hc        1 EED      0.048700
     46 H11        -0.5000    0.5650    2.0500 hc        1 EED      0.067700
     47 H191        0.5700    2.5830    0.2510 h1        1 EED      0.038700
     48 H192       -1.0450    3.1790    0.8750 h1        1 EED      0.038700
     49 H211        1.2590    3.9990    3.5210 h1        1 EED      0.031700
     50 H212        0.0380    4.7260    2.3570 h1        1 EED      0.031700
     51 H213        1.6670    4.1670    1.7370 h1        1 EED      0.031700
@<TRIPOS>BOND
     1    1    2 1   
     2    1   11 1   
     3    1   20 1   
     4    1   24 1   
     5    2    3 ar  
     6    2    8 ar  
     7    3    4 ar  
     8    3   25 1   
     9    4    5 ar  
    10    4   26 1   
    11    5    6 1   
    12    5    7 ar  
    13    6   27 1   
    14    7    8 ar  
    15    7   28 1   
    16    8    9 1   
    17    9   10 1   
    18    9   29 1   
    19    9   30 1   
    20   10   11 1   
    21   10   31 1   
    22   10   32 1   
    23   11   12 1   
    24   11   33 1   
    25   12   13 1   
    26   12   17 1   
    27   12   34 1   
    28   13   14 1   
    29   13   35 1   
    30   13   36 1   
    31   14   15 1   
    32   14   37 1   
    33   14   38 1   
    34   15   16 1   
    35   15   17 1   
    36   15   39 1   
    37   16   40 1   
    38   17   18 1   
    39   17   19 1   
    40   18   41 1   
    41   18   42 1   
    42   18   43 1   
    43   19   20 1   
    44   19   44 1   
    45   19   45 1   
    46   20   21 1   
    47   20   46 1   
    48   21   22 1   
    49   21   47 1   
    50   21   48 1   
    51   22   23 1   
    52   23   49 1   
    53   23   50 1   
    54   23   51 1   
@<TRIPOS>SUBSTRUCTURE
     1 EED         1 TEMP              0 ****  ****    0 ROOT
