@<TRIPOS>MOLECULE
EEE
   14    13     1     0     0
SMALL
bcc


@<TRIPOS>ATOM
      1 C1         -0.0310    0.1160    0.0760 c         1 EEE      0.631100
      2 C2          1.4480    0.0440   -0.0720 c3        1 EEE     -0.150100
      3 O1         -0.6940    0.2810    1.1030 o         1 EEE     -0.546000
      4 O2         -0.6970   -0.0250   -1.1090 os        1 EEE     -0.444900
      5 C3         -2.1330    0.0320   -1.0540 c3        1 EEE      0.138400
      6 C4         -2.6190   -0.1460   -2.4710 c3        1 EEE     -0.100100
      7 H21         1.8350   -0.7920    0.5610 hc        1 EEE      0.075700
      8 H22         1.7360   -0.1300   -1.1370 hc        1 EEE      0.075700
      9 H23         1.8930    1.0060    0.2810 hc        1 EEE      0.075700
     10 H31        -2.4360    1.0240   -0.6270 h1        1 EEE      0.051700
     11 H32        -2.4990   -0.7840   -0.3780 h1        1 EEE      0.051700
     12 H41        -3.7350   -0.1080   -2.4800 hc        1 EEE      0.047367
     13 H42        -2.2210    0.6630   -3.1280 hc        1 EEE      0.047367
     14 H43        -2.2830   -1.1280   -2.8810 hc        1 EEE      0.047367
@<TRIPOS>BOND
     1    1    2 1   
     2    1    3 2   
     3    1    4 1   
     4    2    7 1   
     5    2    8 1   
     6    2    9 1   
     7    4    5 1   
     8    5    6 1   
     9    5   10 1   
    10    5   11 1   
    11    6   12 1   
    12    6   13 1   
    13    6   14 1   
@<TRIPOS>SUBSTRUCTURE
     1 EEE         1 TEMP              0 ****  ****    0 ROOT
