@<TRIPOS>MOLECULE
molecule
   14    13     1     0     0
SMALL
bcc


@<TRIPOS>ATOM
      1 C1           0.0000     0.0000     0.0000 c          1 EEE       0.630100
      2 C2           1.5070     0.0000     0.0000 c3         1 EEE      -0.140100
      3 O1          -0.6040     0.0000     1.0470 o          1 EEE      -0.552000
      4 O2          -0.6710     0.0040    -1.1620 os         1 EEE      -0.433900
      5 C3          -2.1220     0.0040    -1.0860 c3         1 EEE       0.146400
      6 C4          -2.7060     0.0100    -2.5000 c3         1 EEE      -0.096100
      7 H21          1.8680     0.9340    -0.4140 hc         1 EEE       0.068700
      8 H22          1.8680    -0.8250    -0.6020 hc         1 EEE       0.068700
      9 H23          1.8680    -0.1080     1.0160 hc         1 EEE       0.068700
     10 H31         -2.4560    -0.8830    -0.5610 h1         1 EEE       0.049200
     11 H32         -2.4560     0.8860    -0.5540 h1         1 EEE       0.049200
     12 H41         -2.3780     0.9000    -3.0230 hc         1 EEE       0.046700
     13 H42         -3.7880     0.0020    -2.4440 hc         1 EEE       0.046700
     14 H43         -2.3670    -0.8690    -3.0350 hc         1 EEE       0.046700
@<TRIPOS>BOND
     1     1     2 1
     2     1     3 2
     3     1     4 1
     4     2     7 1
     5     2     8 1
     6     2     9 1
     7     4     5 1
     8     5     6 1
     9     5    10 1
    10     5    11 1
    11     6    12 1
    12     6    13 1
    13     6    14 1
@<TRIPOS>SUBSTRUCTURE
     1 EEE         1 TEMP              0 ****  ****    0 ROOT
