@<TRIPOS>MOLECULE
EEG
   70    72     1     0     0
SMALL
bcc


@<TRIPOS>ATOM
      1 O2           0.0000     0.0000     0.0000 o          1 EEG      -0.625100
      2 S7           4.3560    -1.4380     8.3280 ss         1 EEG      -0.337800
      3 C11          1.2130     0.0000     0.0000 c          1 EEG       0.568100
      4 C12          1.9670     0.0000     1.3050 c3         1 EEG      -0.091400
      5 C13          0.9730     0.0000     2.4680 c3         1 EEG       0.034900
      6 C14          2.0720     1.2010     4.3690 ca         1 EEG      -0.096500
      7 C15          2.7600    -1.2070     5.5640 ca         1 EEG      -0.090000
      8 C16          3.1130     0.0010     6.1710 ca         1 EEG      -0.031000
      9 C17          2.7610     1.2070     5.5640 ca         1 EEG      -0.090000
     10 C18          3.8520     0.0010     7.4520 cc         1 EEG       0.106900
     11 C19          4.2390     1.1010     8.1200 cd         1 EEG      -0.144000
     12 C20          4.9210     0.8500     9.3050 cd         1 EEG      -0.002000
     13 C21          5.4290     1.9330    10.1820 ca         1 EEG      -0.017000
     14 C22          6.1070     1.6200    11.3590 ca         1 EEG      -0.092500
     15 C23          6.5780     2.6320    12.1710 ca         1 EEG      -0.101500
     16 C24          6.3780     3.9550    11.8190 ca         1 EEG      -0.104000
     17 C25          5.7050     4.2710    10.6520 ca         1 EEG      -0.101500
     18 C26          5.2350     3.2670     9.8300 ca         1 EEG      -0.092500
     19 C27          1.7260     0.0000     3.7730 ca         1 EEG      -0.072300
     20 C28          2.0710    -1.2000     4.3700 ca         1 EEG      -0.096500
     21 C29          5.0850    -0.4570     9.5920 cc         1 EEG      -0.005100
     22 N2           1.8870    -0.0010    -1.1670 ns         1 EEG      -0.176900
     23 C7           1.1530    -0.0000    -2.4360 c3         1 EEG      -0.057300
     24 C6           2.0170    -0.6010    -3.5150 c          1 EEG       0.592100
     25 O1           3.1360    -0.9910    -3.2500 o          1 EEG      -0.693100
     26 C8           0.7890     1.4370    -2.8150 c3         1 EEG      -0.022400
     27 C9          -0.1870     2.0050    -1.7830 c3         1 EEG      -0.147400
     28 C10         -0.5450     3.4190    -2.1570 c          1 EEG       0.981600
     29 O4E         -1.3950     4.1210    -1.3890 o          1 EEG      -0.903800
     30 O4          -0.0680     3.9230    -3.1460 o          1 EEG      -0.903800
     31 N1           1.5480    -0.7050    -4.7740 ns         1 EEG      -0.150900
     32 C2           2.3870    -1.2890    -5.8230 c3         1 EEG      -0.057300
     33 C1           3.2840    -0.2240    -6.3990 c          1 EEG       0.286100
     34 O9           3.2240     0.9120    -5.9790 o          1 EEG      -0.395100
     35 C3           1.4980    -1.8600    -6.9290 c3         1 EEG      -0.026400
     36 C4           0.6770    -3.0250    -6.3720 c3         1 EEG      -0.134400
     37 C5          -0.1990    -3.5880    -7.4620 c          1 EEG       0.978600
     38 O8E         -1.0120    -4.6240    -7.2010 o          1 EEG      -0.881300
     39 O8          -0.1700    -3.1080    -8.5700 o          1 EEG      -0.881300
     40 N9           4.1490    -0.5330    -7.3860 nz         1 EEG       0.192600
     41 H12          2.5890    -0.8850     1.3630 hc         1 EEG       0.025200
     42 H12A         2.5900     0.8840     1.3630 hc         1 EEG       0.025200
     43 H13          0.3500     0.8850     2.4110 hc         1 EEG       0.042200
     44 H13A         0.3500    -0.8840     2.4110 hc         1 EEG       0.042200
     45 H14          1.7990     2.1370     3.8970 ha         1 EEG       0.114000
     46 H15          3.0300    -2.1470     6.0300 ha         1 EEG       0.108500
     47 H17          3.0310     2.1480     6.0290 ha         1 EEG       0.108500
     48 H19          4.0350     2.1030     7.7640 ha         1 EEG       0.137000
     49 H22          6.2650     0.5840    11.6350 ha         1 EEG       0.110000
     50 H23          7.1060     2.3890    13.0850 ha         1 EEG       0.100500
     51 H24          6.7470     4.7460    12.4610 ha         1 EEG       0.099000
     52 H25          5.5530     5.3080    10.3800 ha         1 EEG       0.100500
     53 H26          4.7080     3.5160     8.9170 ha         1 EEG       0.110000
     54 H28          1.7970    -2.1360     3.8980 ha         1 EEG       0.114000
     55 H29          5.4220    -1.3030    10.1780 h4         1 EEG       0.167000
     56 HN2          2.8870    -0.0260    -1.1680 hn         1 EEG       0.183500
     57 H7           0.2480    -0.5860    -2.3300 h1         1 EEG       0.075700
     58 H8           0.3260     1.4450    -3.7940 hc         1 EEG       0.024200
     59 H8A          1.6870     2.0430    -2.8350 hc         1 EEG       0.024200
     60 H9          -1.0840     1.3980    -1.7630 hc         1 EEG       0.028700
     61 H9A          0.2760     1.9960    -0.8040 hc         1 EEG       0.028700
     62 HN1          0.6190    -0.4020    -4.9880 hn         1 EEG       0.221500
     63 H2           2.9930    -2.0820    -5.4020 h1         1 EEG       0.080700
     64 H3           2.1180    -2.2130    -7.7450 hc         1 EEG       0.026200
     65 H3A          0.8300    -1.0880    -7.2910 hc         1 EEG       0.026200
     66 H4           1.3450    -3.7980    -6.0100 hc         1 EEG       0.021200
     67 H4A          0.0570    -2.6730    -5.5560 hc         1 EEG       0.021200
     68 HN9          4.4150    -1.4940    -7.3070 hn         1 EEG       0.240467
     69 HN9A         4.9620     0.0460    -7.3100 hn         1 EEG       0.240467
     70 H93          3.7120    -0.3790    -8.2730 hn         1 EEG       0.240467
@<TRIPOS>BOND
     1     1     3 2   
     2     2    10 1   
     3     2    21 1   
     4     3     4 1   
     5     3    22 1   
     6     4     5 1   
     7     4    41 1   
     8     4    42 1   
     9     5    19 1   
    10     5    43 1   
    11     5    44 1   
    12     6     9 ar  
    13     6    19 ar  
    14     6    45 1   
    15     7     8 ar  
    16     7    20 ar  
    17     7    46 1   
    18     8     9 ar  
    19     8    10 1   
    20     9    47 1   
    21    10    11 2   
    22    11    12 1   
    23    11    48 1   
    24    12    13 1   
    25    12    21 2   
    26    13    14 ar  
    27    13    18 ar  
    28    14    15 ar  
    29    14    49 1   
    30    15    16 ar  
    31    15    50 1   
    32    16    17 ar  
    33    16    51 1   
    34    17    18 ar  
    35    17    52 1   
    36    18    53 1   
    37    19    20 ar  
    38    20    54 1   
    39    21    55 1   
    40    22    23 1   
    41    22    56 1   
    42    23    24 1   
    43    23    26 1   
    44    23    57 1   
    45    24    25 2   
    46    24    31 1   
    47    26    27 1   
    48    26    58 1   
    49    26    59 1   
    50    27    28 1   
    51    27    60 1   
    52    27    61 1   
    53    28    29 1   
    54    28    30 1   
    55    31    32 1   
    56    31    62 1   
    57    32    33 1   
    58    32    35 1   
    59    32    63 1   
    60    33    34 2   
    61    33    40 1   
    62    35    36 1   
    63    35    64 1   
    64    35    65 1   
    65    36    37 1   
    66    36    66 1   
    67    36    67 1   
    68    37    38 1   
    69    37    39 1   
    70    40    68 1   
    71    40    69 1   
    72    40    70 1   
@<TRIPOS>SUBSTRUCTURE
     1 EEG         1 TEMP              0 ****  ****    0 ROOT
