@<TRIPOS>MOLECULE
EEH
   82    86     1     0     0
SMALL
bcc


@<TRIPOS>ATOM
      1 O3           0.0000     0.0000     0.0000 o          1 EEH      -0.638100
      2 C31          1.2130     0.0000     0.0000 c          1 EEH       0.555100
      3 N3           1.8870     0.0000     1.1680 ns         1 EEH      -0.190900
      4 C32          1.1540     0.0010     2.4360 c3         1 EEH       0.086300
      5 C30          1.9660    -0.0080    -1.3050 c3         1 EEH      -0.030000
      6 N2           1.0140    -0.0130    -2.4180 n          1 EEH      -0.101800
      7 C20          0.5740     1.2740    -2.9390 c3         1 EEH       0.035000
      8 C19          0.0520     1.1300    -4.3700 c3         1 EEH       0.027000
      9 C21          0.6150    -1.1960    -2.8860 c          1 EEH       0.620500
     10 O2           0.9940    -2.2000    -2.3210 o          1 EEH      -0.681500
     11 C22         -0.2840    -1.3430    -4.0840 c3         1 EEH      -0.026300
     12 C23          0.5260    -1.8610    -5.2740 c3         1 EEH       0.023900
     13 C24         -0.3980    -2.1250    -6.4340 ca         1 EEH      -0.090300
     14 C29         -0.6610    -1.1210    -7.3490 ca         1 EEH      -0.093500
     15 C28         -1.5090    -1.3620    -8.4140 ca         1 EEH      -0.094000
     16 C27         -2.0920    -2.6060    -8.5650 ca         1 EEH      -0.097000
     17 C26         -1.8270    -3.6100    -7.6510 ca         1 EEH      -0.094000
     18 C25         -0.9770    -3.3710    -6.5880 ca         1 EEH      -0.093500
     19 N1          -0.8570    -0.0280    -4.4130 n          1 EEH      -0.166800
     20 C18         -2.1550     0.1110    -4.7460 c          1 EEH       0.599100
     21 O1          -2.8810    -0.8600    -4.7740 o          1 EEH      -0.623100
     22 C17         -2.7050     1.4730    -5.0820 c3         1 EEH      -0.100400
     23 C14         -4.1920     1.3540    -5.4200 c3         1 EEH      -0.034700
     24 C13         -4.7210     2.7130    -5.8820 c3         1 EEH      -0.040400
     25 C12         -6.2080     2.5940    -6.2200 c3         1 EEH      -0.035400
     26 C15         -4.9620     0.9020    -4.1780 c3         1 EEH      -0.040400
     27 C16         -6.4500     0.7830    -4.5160 c3         1 EEH      -0.035400
     28 C11         -6.9790     2.1420    -4.9770 c3         1 EEH       0.022700
     29 N           -6.7990     3.1250    -3.9060 ns         1 EEH      -0.202900
     30 C10         -7.7260     3.2400    -2.9340 c          1 EEH       0.566100
     31 O           -8.7090     2.5290    -2.9460 o          1 EEH      -0.629100
     32 C9          -7.5400     4.2520    -1.8330 c3         1 EEH      -0.009200
     33 C8          -8.7070     4.1770    -0.8820 cc         1 EEH       0.020400
     34 C1          -8.7510     3.3980     0.1800 cd         1 EEH      -0.064400
     35 C           -7.6180     2.4810     0.5610 c3         1 EEH       0.066100
     36 S          -10.1750     5.1230    -1.0430 ss         1 EEH      -0.215500
     37 C7         -10.8740     4.4090     0.4040 ca         1 EEH       0.035900
     38 C2          -9.9770     3.4900     0.9570 ca         1 EEH      -0.063800
     39 C6         -12.1100     4.6300     1.0210 ca         1 EEH      -0.057000
     40 C5         -12.4440     3.9430     2.1640 ca         1 EEH      -0.096000
     41 C4         -11.5570     3.0260     2.7120 ca         1 EEH      -0.105000
     42 C3         -10.3450     2.8030     2.1330 ca         1 EEH      -0.062000
     43 H3           2.8870     0.0000     1.1680 hn         1 EEH       0.168500
     44 H301         2.5890    -0.8930    -1.3570 h1         1 EEH       0.045700
     45 H302         2.5890     0.8760    -1.3670 h1         1 EEH       0.045700
     46 H321         0.5500     0.8980     2.5040 h1         1 EEH       0.010700
     47 H322         1.8570    -0.0240     3.2600 h1         1 EEH       0.010700
     48 H323         0.5120    -0.8700     2.4830 h1         1 EEH       0.010700
     49 H201         1.4100     1.9630    -2.9340 h1         1 EEH       0.027200
     50 H202        -0.2180     1.6610    -2.3090 h1         1 EEH       0.027200
     51 H191        -0.4860     2.0270    -4.6530 h1         1 EEH       0.034700
     52 H192         0.8830     0.9670    -5.0460 h1         1 EEH       0.034700
     53 H22         -1.0830    -2.0370    -3.8520 h1         1 EEH       0.098700
     54 H231         1.2620    -1.1200    -5.5590 hc         1 EEH       0.030700
     55 H232         1.0270    -2.7810    -4.9960 hc         1 EEH       0.030700
     56 H29         -0.2040    -0.1460    -7.2300 ha         1 EEH       0.102500
     57 H25         -0.7700    -4.1570    -5.8730 ha         1 EEH       0.102500
     58 H28         -1.7170    -0.5760    -9.1300 ha         1 EEH       0.101000
     59 H27         -2.7580    -2.7940    -9.3980 ha         1 EEH       0.101000
     60 H26         -2.2830    -4.5850    -7.7710 ha         1 EEH       0.101000
     61 H171        -2.5800     2.1330    -4.2320 hc         1 EEH       0.029700
     62 H172        -2.1720     1.8770    -5.9350 hc         1 EEH       0.029700
     63 H14         -4.3300     0.6280    -6.2120 hc         1 EEH       0.051700
     64 H131        -4.1760     3.0300    -6.7630 hc         1 EEH       0.022700
     65 H132        -4.5890     3.4390    -5.0890 hc         1 EEH       0.022700
     66 H151        -4.5880    -0.0610    -3.8540 hc         1 EEH       0.022700
     67 H152        -4.8300     1.6310    -3.3880 hc         1 EEH       0.022700
     68 H121        -6.5820     3.5580    -6.5440 hc         1 EEH       0.027200
     69 H122        -6.3400     1.8660    -7.0110 hc         1 EEH       0.027200
     70 H11         -8.0310     2.0540    -5.2200 h1         1 EEH       0.055700
     71 H161        -6.9940     0.4650    -3.6350 hc         1 EEH       0.027200
     72 H162        -6.5820     0.0570    -5.3090 hc         1 EEH       0.027200
     73 H           -6.0190     3.7520    -3.9300 hn         1 EEH       0.177500
     74 H91C        -7.4850     5.2460    -2.2600 hc         1 EEH       0.035700
     75 H92C        -6.6230     4.0380    -1.2970 hc         1 EEH       0.035700
     76 HC1         -7.6710     1.5760    -0.0320 hc         1 EEH       0.012367
     77 HC2         -7.6940     2.2290     1.6120 hc         1 EEH       0.012367
     78 HC3         -6.6730     2.9780     0.3770 hc         1 EEH       0.012367
     79 H6         -12.8050     5.3440     0.5970 ha         1 EEH       0.109000
     80 HA          -9.6630     2.0850     2.5720 ha         1 EEH       0.106000
     81 H5         -13.4050     4.1110     2.6340 ha         1 EEH       0.104000
     82 H4         -11.8280     2.4890     3.6130 ha         1 EEH       0.103000
@<TRIPOS>BOND
     1     1     2 2   
     2     2     3 1   
     3     2     5 1   
     4     3     4 1   
     5     3    43 1   
     6     4    46 1   
     7     4    47 1   
     8     4    48 1   
     9     5     6 1   
    10     5    44 1   
    11     5    45 1   
    12     6     7 1   
    13     6     9 1   
    14     7     8 1   
    15     7    49 1   
    16     7    50 1   
    17     8    19 1   
    18     8    51 1   
    19     8    52 1   
    20     9    10 2   
    21     9    11 1   
    22    11    12 1   
    23    11    19 1   
    24    11    53 1   
    25    12    13 1   
    26    12    54 1   
    27    12    55 1   
    28    13    14 ar  
    29    13    18 ar  
    30    14    15 ar  
    31    14    56 1   
    32    15    16 ar  
    33    15    58 1   
    34    16    17 ar  
    35    16    59 1   
    36    17    18 ar  
    37    17    60 1   
    38    18    57 1   
    39    19    20 1   
    40    20    21 2   
    41    20    22 1   
    42    22    23 1   
    43    22    61 1   
    44    22    62 1   
    45    23    24 1   
    46    23    26 1   
    47    23    63 1   
    48    24    25 1   
    49    24    64 1   
    50    24    65 1   
    51    25    28 1   
    52    25    68 1   
    53    25    69 1   
    54    26    27 1   
    55    26    66 1   
    56    26    67 1   
    57    27    28 1   
    58    27    71 1   
    59    27    72 1   
    60    28    29 1   
    61    28    70 1   
    62    29    30 1   
    63    29    73 1   
    64    30    31 2   
    65    30    32 1   
    66    32    33 1   
    67    32    74 1   
    68    32    75 1   
    69    33    34 2   
    70    33    36 1   
    71    34    35 1   
    72    34    38 1   
    73    35    76 1   
    74    35    77 1   
    75    35    78 1   
    76    36    37 1   
    77    37    38 ar  
    78    37    39 ar  
    79    38    42 ar  
    80    39    40 ar  
    81    39    79 1   
    82    40    41 ar  
    83    40    81 1   
    84    41    42 ar  
    85    41    82 1   
    86    42    80 1   
@<TRIPOS>SUBSTRUCTURE
     1 EEH         1 TEMP              0 ****  ****    0 ROOT
