@<TRIPOS>MOLECULE
EEJ
   77    83     1     0     0
SMALL
bcc


@<TRIPOS>ATOM
      1 C13          0.0000     0.0000     0.0000 ca         1 EEJ      -0.062500
      2 C17          2.0890     0.0000     1.2080 ca         1 EEJ      -0.062500
      3 C16          1.3970     0.0000     2.4000 ca         1 EEJ      -0.117000
      4 C15          0.0070    -0.0040     2.3990 ca         1 EEJ      -0.063000
      5 C19          7.1640     8.0860     0.0650 c2         1 EEJ      -0.195000
      6 C20          7.4300     8.8510     1.1910 c2         1 EEJ      -0.037000
      7 C21          7.4280     8.2660     2.4420 c2         1 EEJ      -0.137000
      8 C22          7.1590     6.9150     2.5850 c2         1 EEJ      -0.063000
      9 C23          6.8920     6.1370     1.4770 c2         1 EEJ      -0.161000
     10 C24          6.8920     6.7150     0.2050 c3         1 EEJ       0.076000
     11 C11          3.1610     0.9200    -1.5280 c2         1 EEJ      -0.135000
     12 C12          1.3940     0.0000     0.0000 ca         1 EEJ      -0.076000
     13 C34         -1.8520    -0.6830     3.7170 c2         1 EEJ       0.323000
     14 C27          8.0590     9.5570    -1.6990 c2         1 EEJ      -0.231000
     15 N3           5.2110     2.6370    -1.8770 n7         1 EEJ      -0.043000
     16 C4           4.9290     1.8180    -3.0580 c3         1 EEJ      -0.001000
     17 C5           3.8120     0.8540    -2.7480 c2         1 EEJ      -0.098000
     18 C6           6.1850     1.0360    -3.4480 c3         1 EEJ      -0.112000
     19 N7           3.4570    -0.0530    -3.6370 n2         1 EEJ       0.000000
     20 N8           2.5150    -0.8980    -3.4230 n2         1 EEJ       0.009000
     21 C9           1.8320    -0.9190    -2.2940 c2         1 EEJ      -0.152000
     22 C10          2.1370    -0.0010    -1.2840 c2         1 EEJ      -0.012000
     23 C14         -0.6880     0.0000     1.1950 ca         1 EEJ      -0.117000
     24 N18         -0.6920    -0.0040     3.6080 ns         1 EEJ       0.137000
     25 N25          7.1620     8.6780    -1.2020 na         1 EEJ       0.336000
     26 C26          6.6090     5.8940    -0.9820 c2         1 EEJ       0.070000
     27 N28          7.6780     9.8570    -2.9130 n2         1 EEJ      -0.128000
     28 N29          6.6010     9.2270    -3.2170 n2         1 EEJ       0.052000
     29 N30          6.2250     8.4840    -2.2330 n2         1 EEJ      -0.233000
     30 C31          6.0500     4.6740    -0.8390 c2         1 EEJ      -0.175000
     31 O33          6.0380     4.2750    -3.1300 o          1 EEJ      -0.384000
     32 O35         -2.3310    -1.2260     2.7420 o          1 EEJ      -0.455000
     33 O36         -2.4790    -0.7580     4.9060 os         1 EEJ      -0.265000
     34 C37         -3.7240    -1.5050     4.9480 c3         1 EEJ       0.099000
     35 C38          7.2790     2.0120    -3.8840 c3         1 EEJ      -0.125000
     36 C39          8.5730     1.2410    -4.1550 c3         1 EEJ      -0.101000
     37 C40          9.6770     2.2200    -4.5580 c3         1 EEJ      -0.118000
     38 C41          9.2670     2.9430    -5.8460 c3         1 EEJ      -0.075000
     39 N42          7.9530     3.5670    -5.6400 n          1 EEJ      -0.012000
     40 C43          6.8420     2.7320    -5.1640 c3         1 EEJ      -0.078000
     41 C44          7.7700     4.8800    -5.8820 c2         1 EEJ       0.226000
     42 O45          6.6810     5.3830    -5.7080 o          1 EEJ      -0.383000
     43 C46          8.9210     5.7230    -6.3690 c3         1 EEJ      -0.143000
     44 H52         -0.5420     0.0020    -0.9380 ha         1 EEJ       0.113000
     45 H55          3.1730     0.0020     1.2110 ha         1 EEJ       0.113000
     46 H54          1.9370    -0.0020     3.3400 ha         1 EEJ       0.131500
     47 H57          7.6400     9.9090     1.0880 ha         1 EEJ       0.116000
     48 H58          7.6360     8.8690     3.3180 ha         1 EEJ       0.125000
     49 H59          6.6830     5.0800     1.5940 ha         1 EEJ       0.141000
     50 H51          3.2490     1.8080    -0.9150 ha         1 EEJ       0.132000
     51 H47          5.0250     2.2750    -0.9620 hn         1 EEJ       0.104000
     52 H48          4.6340     2.4590    -3.8800 h1         1 EEJ       0.125000
     53 H50          5.9520     0.3650    -4.2660 hc         1 EEJ       0.072000
     54 H49          6.5310     0.4610    -2.5980 hc         1 EEJ       0.072000
     55 H53         -1.7720    -0.0010     1.1950 ha         1 EEJ       0.131500
     56 H56         -0.3460     0.5220     4.3860 hn         1 EEJ       0.084000
     57 H60          5.8640     6.4620    -0.4400 DU         1 EEJ       0.065000
     58 H62          5.2030     4.8220    -1.4980 DU         1 EEJ       0.057000
     59 H64         -4.4380    -1.0540     4.2700 h1         1 EEJ       0.041667
     60 H63         -4.1210    -1.4870     5.9550 h1         1 EEJ       0.041667
     61 H65         -3.5400    -2.5300     4.6500 h1         1 EEJ       0.041667
     62 H66          7.4520     2.7420    -3.1020 hc         1 EEJ       0.095000
     63 H68          8.4090     0.5340    -4.9590 hc         1 EEJ       0.055000
     64 H67          8.8710     0.7130    -3.2570 hc         1 EEJ       0.055000
     65 H70          9.8210     2.9470    -3.7680 hc         1 EEJ       0.058500
     66 H69         10.5980     1.6750    -4.7280 hc         1 EEJ       0.058500
     67 H72          9.2060     2.2290    -6.6590 h1         1 EEJ       0.062000
     68 H71          9.9980     3.7080    -6.0810 h1         1 EEJ       0.062000
     69 H73          5.9830     3.3580    -4.9520 h1         1 EEJ       0.089500
     70 H74          6.5880     2.0010    -5.9220 h1         1 EEJ       0.089500
     71 H75          9.3980     5.2320    -7.2080 hc         1 EEJ       0.061667
     72 H77          8.5510     6.6930    -6.6810 hc         1 EEJ       0.061667
     73 H76          9.6390     5.8500    -5.5690 hc         1 EEJ       0.061667
     74 Cl2          0.5670    -2.0860    -2.0630 cl         1 EEJ       0.130000
     75 C32          5.7690     3.8550    -2.0190 c3         1 EEJ       0.331000
     76 Cl1          7.1600     6.1950     4.1650 cl         1 EEJ       0.074000
     77 H61          8.9320     9.9420    -1.1860 h5         1 EEJ       0.172000
@<TRIPOS>BOND
     1     1    12 1   
     2     1    23 1   
     3     1    44 1   
     4     2     3 1   
     5     2    12 1   
     6     2    45 1   
     7     3     4 1   
     8     3    46 1   
     9     4    23 1   
    10     4    24 1   
    11     5     6 1   
    12     5    10 1   
    13     5    25 1   
    14     6     7 1   
    15     6    47 1   
    16     7     8 1   
    17     7    48 1   
    18     8     9 1   
    19     8    76 1   
    20     9    10 1   
    21     9    49 1   
    22    10    26 1   
    23    10    57 1   
    24    11    17 1   
    25    11    22 1   
    26    11    50 1   
    27    12    22 1   
    28    13    24 1   
    29    13    32 1   
    30    13    33 1   
    31    14    25 1   
    32    14    27 1   
    33    14    77 1   
    34    15    16 1   
    35    15    51 1   
    36    15    75 1   
    37    16    17 1   
    38    16    18 1   
    39    16    52 1   
    40    17    19 1   
    41    18    35 1   
    42    18    53 1   
    43    18    54 1   
    44    19    20 1   
    45    20    21 1   
    46    21    22 1   
    47    21    74 1   
    48    23    55 1   
    49    24    56 1   
    50    25    29 1   
    51    26    30 1   
    52    26    57 1   
    53    27    28 1   
    54    28    29 1   
    55    30    58 1   
    56    30    75 1   
    57    31    75 1   
    58    33    34 1   
    59    34    59 1   
    60    34    60 1   
    61    34    61 1   
    62    35    36 1   
    63    35    40 1   
    64    35    62 1   
    65    36    37 1   
    66    36    63 1   
    67    36    64 1   
    68    37    38 1   
    69    37    65 1   
    70    37    66 1   
    71    38    39 1   
    72    38    67 1   
    73    38    68 1   
    74    39    40 1   
    75    39    41 1   
    76    40    69 1   
    77    40    70 1   
    78    41    42 1   
    79    41    43 1   
    80    43    71 1   
    81    43    72 1   
    82    43    73 1   
    83    58    75 1   
@<TRIPOS>SUBSTRUCTURE
     1 EEJ         1 TEMP              0 ****  ****    0 ROOT
