@<TRIPOS>MOLECULE
molecule
   77    81     1     0     0
SMALL
bcc


@<TRIPOS>ATOM
      1 C13          0.0000     0.0000     0.0000 ca         1 EEJ      -0.084500
      2 C17          2.0890     0.0000     1.2080 ca         1 EEJ      -0.084500
      3 C16          1.3970     0.0000     2.4000 ca         1 EEJ      -0.145500
      4 C15          0.0070    -0.0040     2.3990 ca         1 EEJ       0.085600
      5 C19          7.1640     8.0860     0.0650 ca         1 EEJ       0.022800
      6 C20          7.4300     8.8510     1.1910 ca         1 EEJ      -0.123000
      7 C21          7.4280     8.2660     2.4420 ca         1 EEJ      -0.104000
      8 C22          7.1590     6.9150     2.5850 ca         1 EEJ       0.032400
      9 C23          6.8920     6.1370     1.4770 ca         1 EEJ      -0.103000
     10 C24          6.8920     6.7150     0.2050 ca         1 EEJ      -0.042800
     11 C11          3.1610     0.9200    -1.5280 ca         1 EEJ      -0.212300
     12 C12          1.3940     0.0000     0.0000 cp         1 EEJ      -0.080000
     13 C34         -1.8520    -0.6830     3.7170 c          1 EEJ       0.751100
     14 C27          8.0590     9.5570    -1.6990 cc         1 EEJ       0.410400
     15 N3           5.2110     2.6370    -1.8770 ns         1 EEJ      -0.589900
     16 C4           4.9290     1.8180    -3.0580 c3         1 EEJ       0.073400
     17 C5           3.8120     0.8540    -2.7480 ca         1 EEJ       0.348600
     18 C6           6.1850     1.0360    -3.4480 c3         1 EEJ      -0.086400
     19 N7           3.4570    -0.0530    -3.6370 nb         1 EEJ      -0.300000
     20 N8           2.5150    -0.8980    -3.4230 nb         1 EEJ      -0.292000
     21 C9           1.8320    -0.9190    -2.2940 ca         1 EEJ       0.442300
     22 C10          2.1370    -0.0010    -1.2840 cp         1 EEJ      -0.088300
     23 C14         -0.6880     0.0000     1.1950 ca         1 EEJ      -0.145500
     24 N18         -0.6920    -0.0040     3.6080 ns         1 EEJ      -0.464100
     25 N25          7.1620     8.6780    -1.2020 na         1 EEJ      -0.014500
     26 C26          6.6090     5.8940    -0.9820 ce         1 EEJ      -0.028200
     27 N28          7.6780     9.8570    -2.9130 nd         1 EEJ      -0.407000
     28 N29          6.6010     9.2270    -3.2170 nd         1 EEJ       0.012000
     29 N30          6.2250     8.4840    -2.2330 nc         1 EEJ      -0.193800
     30 C31          6.0500     4.6740    -0.8390 cf         1 EEJ      -0.235200
     31 O33          6.0380     4.2750    -3.1300 o          1 EEJ      -0.574100
     32 O35         -2.3310    -1.2260     2.7420 o          1 EEJ      -0.595000
     33 O36         -2.4790    -0.7580     4.9060 os         1 EEJ      -0.438900
     34 C37         -3.7240    -1.5050     4.9480 c3         1 EEJ       0.158700
     35 C38          7.2790     2.0120    -3.8840 c3         1 EEJ      -0.089700
     36 C39          8.5730     1.2410    -4.1550 c3         1 EEJ      -0.076400
     37 C40          9.6770     2.2200    -4.5580 c3         1 EEJ      -0.096400
     38 C41          9.2670     2.9430    -5.8460 c3         1 EEJ       0.101000
     39 N42          7.9530     3.5670    -5.6400 n          1 EEJ      -0.490800
     40 C43          6.8420     2.7320    -5.1640 c3         1 EEJ       0.112000
     41 C44          7.7700     4.8800    -5.8820 c          1 EEJ       0.659100
     42 O45          6.6810     5.3830    -5.7080 o          1 EEJ      -0.587100
     43 C46          8.9210     5.7230    -6.3690 c3         1 EEJ      -0.171100
     44 H52         -0.5420     0.0020    -0.9380 ha         1 EEJ       0.141500
     45 H55          3.1730     0.0020     1.2110 ha         1 EEJ       0.141500
     46 H54          1.9370    -0.0020     3.3400 ha         1 EEJ       0.155500
     47 H57          7.6400     9.9090     1.0880 ha         1 EEJ       0.150000
     48 H58          7.6360     8.8690     3.3180 ha         1 EEJ       0.156000
     49 H59          6.6830     5.0800     1.5940 ha         1 EEJ       0.157000
     50 H51          3.2490     1.8080    -0.9150 ha         1 EEJ       0.159000
     51 H47          5.0270     2.2740    -0.9620 hn         1 EEJ       0.313500
     52 H48          4.6340     2.4590    -3.8800 h1         1 EEJ       0.112700
     53 H50          5.9520     0.3650    -4.2670 hc         1 EEJ       0.058700
     54 H49          6.5310     0.4610    -2.5980 hc         1 EEJ       0.058700
     55 H53         -1.7720    -0.0010     1.1950 ha         1 EEJ       0.155500
     56 H56         -0.3450     0.5210     4.3860 hn         1 EEJ       0.336500
     57 H60          6.8500     6.2670    -1.9700 ha         1 EEJ       0.185000
     58 H62          5.8100     4.3000     0.1490 ha         1 EEJ       0.124000
     59 H64         -4.4380    -1.0540     4.2700 h1         1 EEJ       0.053367
     60 H63         -3.5400    -2.5300     4.6500 h1         1 EEJ       0.053367
     61 H65         -4.1210    -1.4870     5.9550 h1         1 EEJ       0.053367
     62 H66          7.4520     2.7420    -3.1020 hc         1 EEJ       0.070700
     63 H68          8.8710     0.7130    -3.2570 hc         1 EEJ       0.041200
     64 H67          8.4090     0.5340    -4.9590 hc         1 EEJ       0.041200
     65 H70          9.8210     2.9470    -3.7680 hc         1 EEJ       0.046200
     66 H69         10.5980     1.6750    -4.7280 hc         1 EEJ       0.046200
     67 H72          9.2060     2.2290    -6.6590 h1         1 EEJ       0.046200
     68 H71          9.9980     3.7080    -6.0810 h1         1 EEJ       0.046200
     69 H73          6.5880     2.0010    -5.9220 h1         1 EEJ       0.070700
     70 H74          5.9830     3.3580    -4.9520 h1         1 EEJ       0.070700
     71 H75          9.3970     5.2320    -7.2090 hc         1 EEJ       0.056700
     72 H77          9.6400     5.8500    -5.5690 hc         1 EEJ       0.056700
     73 H76          8.5520     6.6930    -6.6800 hc         1 EEJ       0.056700
     74 Cl2          0.5670    -2.0860    -2.0630 cl         1 EEJ      -0.125000
     75 C32          5.7690     3.8550    -2.0190 c          1 EEJ       0.655300
     76 Cl1          7.1600     6.1950     4.1650 cl         1 EEJ      -0.090400
     77 H61          8.9320     9.9420    -1.1860 h5         1 EEJ       0.081100
@<TRIPOS>BOND
     1    27    14 2
     2    27    28 1
     3    14    25 1
     4    43    41 1
     5    28    29 2
     6    25    29 1
     7    25     5 1
     8    41    42 2
     9    41    39 1
    10     6     5 ar
    11     6     7 ar
    12    20    19 ar
    13    20    21 ar
    14     5    10 ar
    15    74    21 1
    16    19    17 ar
    17    40    39 1
    18    40    35 1
    19     7     8 ar
    20    21    22 ar
    21    39    38 1
    22    10    26 1
    23    10     9 ar
    24    18    35 1
    25    18    16 1
    26    26    30 2
    27    35    36 1
    28    17    16 1
    29    17    11 ar
    30     8     9 ar
    31     8    76 1
    32    15    16 1
    33    15    75 1
    34    22    11 ar
    35    22    12 1
    36    30    75 1
    37    38    37 1
    38    75    31 2
    39    36    37 1
    40    12     1 ar
    41    12     2 ar
    42     1    23 ar
    43     2     3 ar
    44    23     4 ar
    45     3     4 ar
    46     4    24 1
    47    32    13 2
    48    24    13 1
    49    13    33 1
    50    33    34 1
    51     1    44 1
    52     2    45 1
    53     3    46 1
    54     6    47 1
    55     7    48 1
    56     9    49 1
    57    11    50 1
    58    14    77 1
    59    15    51 1
    60    16    52 1
    61    18    53 1
    62    18    54 1
    63    23    55 1
    64    24    56 1
    65    26    57 1
    66    30    58 1
    67    34    59 1
    68    34    60 1
    69    34    61 1
    70    35    62 1
    71    36    63 1
    72    36    64 1
    73    37    65 1
    74    37    66 1
    75    38    67 1
    76    38    68 1
    77    40    69 1
    78    40    70 1
    79    43    71 1
    80    43    72 1
    81    43    73 1
@<TRIPOS>SUBSTRUCTURE
     1 EEJ         1 TEMP              0 ****  ****    0 ROOT
