@<TRIPOS>MOLECULE
EEK
   24    24     1     0     0
SMALL
bcc


@<TRIPOS>ATOM
      1 C10          0.0000     0.0000     0.0000 c          1 EEK       0.560100
      2 C15          4.9720     0.8100    -3.2500 ca         1 EEK      -0.127000
      3 C02          4.7320     0.3110    -5.5810 ca         1 EEK      -0.054600
      4 C03          3.5690    -0.3910    -5.3150 ca         1 EEK      -0.020600
      5 C05          3.0980    -0.4850    -4.0180 ca         1 EEK      -0.096000
      6 C06          3.8030     0.1110    -2.9800 ca         1 EEK      -0.076400
      7 C08          2.0100     0.0060    -1.4200 c          1 EEK       0.552100
      8 C09          1.5070     0.0000     0.0000 c3         1 EEK      -0.165400
      9 C16          5.4320     0.9100    -4.5490 ca         1 EEK      -0.073000
     10 N07          3.3350     0.0080    -1.6660 ns         1 EEK      -0.049100
     11 N11         -0.6740     0.0000     1.1670 ns         1 EEK      -0.071400
     12 O12         -2.0910     0.0000     1.1660 oh         1 EEK      -0.433100
     13 O13         -0.6060     0.0040    -1.0510 o          1 EEK      -0.550100
     14 O14          1.2220     0.0100    -2.3430 o          1 EEK      -0.559100
     15 Cl4          2.6930    -1.1430    -6.6130 cl         1 EEK       0.002600
     16 H1           5.5220     1.2780    -2.4420 ha         1 EEK       0.108000
     17 H2           2.1870    -1.0330    -3.8110 ha         1 EEK       0.162000
     18 H3           1.8680    -0.8870     0.5070 hc         1 EEK       0.037700
     19 H4           1.8680     0.8820     0.5150 hc         1 EEK       0.037700
     20 H5           6.3430     1.4570    -4.7590 ha         1 EEK       0.116000
     21 H6           3.9840    -0.0890    -0.9100 hn         1 EEK       0.164500
     22 H7          -0.1750    -0.0320     2.0340 hn         1 EEK       0.149500
     23 H8          -2.4060     0.0780     2.0510 ho         1 EEK       0.391000
     24 Cl1          5.3140     0.4390    -7.2110 cl         1 EEK      -0.007400
@<TRIPOS>BOND
     1     1     8 1   
     2     1    11 1   
     3     1    13 2   
     4     2     6 ar  
     5     2     9 ar  
     6     2    16 1   
     7     3     4 ar  
     8     3     9 ar  
     9     3    24 1   
    10     4     5 ar  
    11     4    15 1   
    12     5     6 ar  
    13     5    17 1   
    14     6    10 1   
    15     7     8 1   
    16     7    10 1   
    17     7    14 2   
    18     8    18 1   
    19     8    19 1   
    20     9    20 1   
    21    10    21 1   
    22    11    12 1   
    23    11    22 1   
    24    12    23 1   
@<TRIPOS>SUBSTRUCTURE
     1 EEK         1 TEMP              0 ****  ****    0 ROOT
