@<TRIPOS>MOLECULE
molecule
   27    29     1     0     0
SMALL
bcc


@<TRIPOS>ATOM
      1 Cl1          0.0000     0.0000     0.0000 cl         1 EES      -0.045400
      2 CAP          1.7360     0.0000     0.0000 cc         1 EES       0.037300
      3 CAR          2.5510     0.0000     1.1190 ca         1 EES      -0.162000
      4 CAJ          2.3260    -0.0010     2.5110 ca         1 EES      -0.091000
      5 CAN          3.3880    -0.0020     3.3620 ca         1 EES       0.077100
      6 OAC          3.1650    -0.0020     4.7030 oh         1 EES      -0.521100
      7 CAH          4.7060    -0.0020     2.8890 ca         1 EES      -0.113000
      8 CAI          4.9900    -0.0010     1.5630 ca         1 EES      -0.098000
      9 CAQ          3.9370     0.0000     0.6230 ca         1 EES      -0.033000
     10 NAL          3.8710     0.0010    -0.6970 nc         1 EES      -0.253400
     11 NAS          2.5270    -0.0050    -1.0860 na         1 EES       0.221700
     12 CAO          2.0740    -0.0110    -2.4130 ca         1 EES      -0.005200
     13 CAF          0.9130    -0.6980    -2.7470 ca         1 EES      -0.107000
     14 CAD          0.4670    -0.7040    -4.0530 ca         1 EES      -0.143000
     15 CAG          2.7800     0.6730    -3.3920 ca         1 EES      -0.107000
     16 CAE          2.3330     0.6670    -4.6980 ca         1 EES      -0.143000
     17 CAM          1.1770    -0.0240    -5.0320 ca         1 EES       0.112100
     18 OAB          0.7380    -0.0310    -6.3180 oh         1 EES      -0.519100
     19 HAJ          1.3220    -0.1310     2.8980 ha         1 EES       0.147000
     20 HOAC         3.0570     0.8850     5.0040 ho         1 EES       0.417000
     21 HAH          5.5220    -0.0020     3.6020 ha         1 EES       0.144000
     22 HAI          6.0200    -0.0010     1.2260 ha         1 EES       0.146000
     23 HAF          0.3590    -1.2280    -1.9820 ha         1 EES       0.157000
     24 HAD         -0.4360    -1.2420    -4.3140 ha         1 EES       0.150500
     25 HAG          3.6830     1.2130    -3.1300 ha         1 EES       0.157000
     26 HAE          2.8860     1.1990    -5.4630 ha         1 EES       0.150500
     27 HOAB         1.1170    -0.7640    -6.7760 ho         1 EES       0.424000
@<TRIPOS>BOND
     1     1     2 1
     2     2     3 2
     3     2    11 1
     4     3     9 ar
     5     3     4 ar
     6     4     5 ar
     7     4    19 1
     8     5     7 ar
     9     5     6 1
    10     6    20 1
    11     7     8 ar
    12     7    21 1
    13     8     9 ar
    14     8    22 1
    15     9    10 2
    16    10    11 1
    17    11    12 1
    18    12    15 ar
    19    12    13 ar
    20    13    14 ar
    21    13    23 1
    22    14    17 ar
    23    14    24 1
    24    15    16 ar
    25    15    25 1
    26    16    17 ar
    27    16    26 1
    28    17    18 1
    29    18    27 1
@<TRIPOS>SUBSTRUCTURE
     1 EES         1 TEMP              0 ****  ****    0 ROOT
