@<TRIPOS>MOLECULE
EES
   27    29     1     0     0
SMALL
bcc


@<TRIPOS>ATOM
      1 CL1         0.0590    0.3550   -0.0280 cl        1 EES     -0.022400
      2 CAP         1.7140    0.1420    0.0500 cc        1 EES     -0.044700
      3 CAR         2.5460    0.1110    1.1920 ca        1 EES     -0.076000
      4 CAJ         2.3370    0.2100    2.5820 ca        1 EES     -0.184000
      5 CAN         3.4430    0.1310    3.3990 ca        1 EES      0.120100
      6 OAC         3.3710    0.2140    4.7720 oh        1 EES     -0.498100
      7 CAH         4.7740   -0.0470    2.8870 ca        1 EES     -0.130000
      8 CAI         5.0030   -0.1460    1.5450 ca        1 EES     -0.063000
      9 CAQ         3.8940   -0.0700    0.6520 ca        1 EES     -0.098000
     10 NAL         3.8480   -0.1390   -0.7210 nc        1 EES     -0.240400
     11 NAS         2.5610   -0.0180   -1.0630 na        1 EES      0.233700
     12 CAO         2.1270   -0.0350   -2.4270 ca        1 EES     -0.043200
     13 CAF         1.0970   -0.9050   -2.8320 ca        1 EES     -0.070500
     14 CAD         0.6770   -0.9140   -4.1570 ca        1 EES     -0.183000
     15 CAG         2.7480    0.8090   -3.3710 ca        1 EES     -0.070500
     16 CAE         2.3330    0.7950   -4.6960 ca        1 EES     -0.183000
     17 CAM         1.2930   -0.0650   -5.0870 ca        1 EES      0.139100
     18 OAB         0.9280   -0.0220   -6.4110 oh        1 EES     -0.490100
     19 HAJ         1.3230    0.3460    2.9800 ha        1 EES      0.142000
     20 HOAC        2.4420    0.3340    5.0160 ho        1 EES      0.419000
     21 HAH         5.5960   -0.1000    3.6160 ha        1 EES      0.153000
     22 HAI         6.0170   -0.2830    1.1400 ha        1 EES      0.151000
     23 HAF         0.6170   -1.5830   -2.1080 ha        1 EES      0.157000
     24 HAD        -0.1310   -1.5900   -4.4720 ha        1 EES      0.151000
     25 HAG         3.5700    1.4790   -3.0680 ha        1 EES      0.157000
     26 HAE         2.8070    1.4480   -5.4430 ha        1 EES      0.151000
     27 HOAB        0.2170   -0.6660   -6.5480 ho        1 EES      0.424000
@<TRIPOS>BOND
     1    1    2 1   
     2    2    3 2   
     3    2   11 1   
     4    3    4 ar  
     5    3    9 ar  
     6    4    5 ar  
     7    4   19 1   
     8    5    6 1   
     9    5    7 ar  
    10    6   20 1   
    11    7    8 ar  
    12    7   21 1   
    13    8    9 ar  
    14    8   22 1   
    15    9   10 2   
    16   10   11 1   
    17   11   12 1   
    18   12   13 ar  
    19   12   15 ar  
    20   13   14 ar  
    21   13   23 1   
    22   14   17 ar  
    23   14   24 1   
    24   15   16 ar  
    25   15   25 1   
    26   16   17 ar  
    27   16   26 1   
    28   17   18 1   
    29   18   27 1   
@<TRIPOS>SUBSTRUCTURE
     1 EES         1 TEMP              0 ****  ****    0 ROOT
