@<TRIPOS>MOLECULE
molecule
   57    56     1     0     0
SMALL
bcc


@<TRIPOS>ATOM
      1 O4           0.0000     0.0000     0.0000 o          1 EET      -0.851800
      2 C20          1.3420     0.0000     0.0000 c          1 EET       0.891600
      3 O3           1.9450     0.0000     1.0470 o          1 EET      -0.851800
      4 C19          2.0960    -0.0010    -1.3040 c3         1 EET      -0.192400
      5 C18          3.6000    -0.0020    -1.0250 c3         1 EET      -0.072400
      6 C17          4.3670    -0.0020    -2.3490 c3         1 EET       0.008800
      7 C16          5.8480    -0.0020    -2.0730 c2         1 EET      -0.192200
      8 C15          6.6180    -0.9020    -2.6340 c2         1 EET      -0.258200
      9 C14          6.0550    -1.8310    -3.6770 c3         1 EET       0.179000
     10 C13          6.9020    -1.7600    -4.9220 c2         1 EET      -0.129200
     11 C12          7.3740    -2.8590    -5.4570 c2         1 EET      -0.276200
     12 C11          6.9410    -4.2000    -4.9270 c3         1 EET       0.156000
     13 C10          6.4180    -5.0440    -6.0610 c2         1 EET      -0.216200
     14 C9           6.9030    -6.2440    -6.2620 c2         1 EET      -0.245200
     15 C8           7.8520    -6.8510    -5.2610 c3         1 EET       0.037800
     16 C7           7.3340    -8.2270    -4.8360 c3         1 EET       0.130100
     17 O2           7.3530    -9.1110    -5.9590 oh         1 EET      -0.583800
     18 C6           8.2290    -8.7890    -3.7300 c3         1 EET       0.136100
     19 C5           7.7870   -10.2150    -3.3920 c3         1 EET      -0.093400
     20 C4           8.5990   -10.7310    -2.2020 c3         1 EET      -0.084400
     21 C3           8.1570   -12.1570    -1.8650 c3         1 EET      -0.079400
     22 C2           8.9690   -12.6740    -0.6740 c3         1 EET      -0.084400
     23 C1           8.5270   -14.1000    -0.3370 c3         1 EET      -0.092100
     24 O1           9.5870    -8.8040    -4.1760 oh         1 EET      -0.590800
     25 H2           1.8350     0.8840    -1.8730 hc         1 EET       0.025200
     26 H3           1.8340    -0.8850    -1.8720 hc         1 EET       0.025200
     27 H4           3.8620     0.8830    -0.4560 hc         1 EET       0.060700
     28 H5           3.8610    -0.8860    -0.4560 hc         1 EET       0.060700
     29 H6           4.1050    -0.8870    -2.9170 hc         1 EET       0.038200
     30 H7           4.1050     0.8820    -2.9170 hc         1 EET       0.038200
     31 H8           5.4420     0.4820    -2.9530 ha         1 EET       0.112000
     32 H9           6.0940    -1.8070    -2.3530 ha         1 EET       0.004000
     33 H10          5.0400    -1.5350    -3.9140 hc         1 EET       0.043700
     34 H11          6.0570    -2.8450    -3.2970 hc         1 EET       0.043700
     35 H12          5.8380    -1.9600    -4.9780 ha         1 EET       0.060000
     36 H14          6.3970    -3.3190    -5.5350 ha         1 EET       0.118000
     37 H16          7.7870    -4.6970    -4.4680 hc         1 EET       0.062200
     38 H17          6.1600    -4.0620    -4.1890 hc         1 EET       0.062200
     39 H18          6.0250    -5.1560    -5.0580 ha         1 EET       0.026000
     40 H19          7.9630    -6.0240    -6.2970 ha         1 EET       0.106000
     41 H20          8.8320    -6.9580    -5.7110 hc         1 EET       0.064200
     42 H21          7.9220    -6.2080    -4.3920 hc         1 EET       0.064200
     43 H22          6.3190    -8.1330    -4.4680 h1         1 EET       0.047700
     44 H23          6.4730    -9.2420    -6.2710 ho         1 EET       0.404000
     45 H24          8.1460    -8.1670    -2.8470 h1         1 EET       0.032700
     46 H25          6.7340   -10.2160    -3.1380 hc         1 EET       0.058200
     47 H26          7.9530   -10.8570    -4.2480 hc         1 EET       0.058200
     48 H27          8.4320   -10.0890    -1.3450 hc         1 EET       0.042200
     49 H28          9.6520   -10.7300    -2.4550 hc         1 EET       0.042200
     50 H29          7.1040   -12.1580    -1.6110 hc         1 EET       0.042200
     51 H30          8.3240   -12.7980    -2.7210 hc         1 EET       0.042200
     52 H31         10.0220   -12.6730    -0.9270 hc         1 EET       0.039700
     53 H32          8.8030   -12.0330     0.1830 hc         1 EET       0.039700
     54 H33          7.4730   -14.1010    -0.0850 hc         1 EET       0.031700
     55 H34          9.1010   -14.4660     0.5050 hc         1 EET       0.031700
     56 H35          8.6940   -14.7420    -1.1940 hc         1 EET       0.031700
     57 H36         10.1270    -8.3480    -3.5530 ho         1 EET       0.395000
@<TRIPOS>BOND
     1     5     4 1
     2     5     6 1
     3     4     2 1
     4     7     6 1
     5     7     8 2
     6     3     2 1
     7     2     1 1
     8     8     9 1
     9     9    10 1
    10    10    11 2
    11    13    12 1
    12    13    14 2
    13    11    12 1
    14    14    15 1
    15    15    16 1
    16    16    18 1
    17    16    17 1
    18    18    19 1
    19    19    20 1
    20    20    21 1
    21    21    22 1
    22    22    23 1
    23    18    24 1
    24     4    25 1
    25     4    26 1
    26     5    27 1
    27     5    28 1
    28     6    29 1
    29     6    30 1
    30     7    31 1
    31     8    32 1
    32     9    33 1
    33     9    34 1
    34    10    35 1
    35    11    36 1
    36    12    37 1
    37    12    38 1
    38    13    39 1
    39    14    40 1
    40    15    41 1
    41    15    42 1
    42    16    43 1
    43    17    44 1
    44    18    45 1
    45    19    46 1
    46    19    47 1
    47    20    48 1
    48    20    49 1
    49    21    50 1
    50    21    51 1
    51    22    52 1
    52    22    53 1
    53    23    54 1
    54    23    55 1
    55    23    56 1
    56    24    57 1
@<TRIPOS>SUBSTRUCTURE
     1 EET         1 TEMP              0 ****  ****    0 ROOT
