@<TRIPOS>MOLECULE
EEV
   72    77     1     0     0
SMALL
bcc


@<TRIPOS>ATOM
      1 C4           0.0000     0.0000     0.0000 ca         1 EEV       0.572600
      2 C5           1.3970     0.0000     0.0000 ca         1 EEV      -0.402400
      3 C6           2.0530     0.0000     1.2580 ca         1 EEV       0.596200
      4 N1           1.3210    -0.0000     2.3620 nb         1 EEV      -0.727000
      5 N3          -0.6510     0.0000     1.1700 nb         1 EEV      -0.645000
      6 C2           0.0010    -0.0000     2.3080 ca         1 EEV       0.693900
      7 CAI          6.8180     2.5780     7.0050 ca         1 EEV      -0.066000
      8 CAJ          7.2270     3.8620     7.2880 ca         1 EEV      -0.106000
      9 CAK          1.9420    -0.0010    -1.3450 cc         1 EEV      -0.036200
     10 CAL          9.9050     4.5100     4.9910 cc         1 EEV      -0.094200
     11 CAM          5.3860    -0.9200     2.6420 c3         1 EEV      -0.039900
     12 CAN          4.1970     1.1760     3.2920 c3         1 EEV      -0.039900
     13 CAO          6.0600    -0.9210     4.0160 c3         1 EEV       0.155800
     14 CAP          4.9050     1.1140     4.6470 c3         1 EEV       0.155800
     15 CAQ          5.2850     7.6210     5.9910 c3         1 EEV       0.153400
     16 CAR          7.2290     8.8530     7.8020 c3         1 EEV       0.015000
     17 CAS          6.9780     0.5090     5.7410 c3         1 EEV       0.207100
     18 CAU          8.5540     6.7490     7.5350 c3         1 EEV      -0.042700
     19 CBB          5.1360     9.0170     6.5290 c          1 EEV       0.575500
     20 CBC          8.4550     2.3850     5.2710 ca         1 EEV       0.009700
     21 CBD          1.0390    -0.0010    -2.3070 cd         1 EEV      -0.047600
     22 CBE          9.8830     5.6960     5.6550 cd         1 EEV      -0.112800
     23 CBF          7.4360     1.8450     5.9990 ca         1 EEV      -0.130300
     24 CBH          8.8930     3.6880     5.5440 ca         1 EEV      -0.115800
     25 CBK          8.2690     4.4340     6.5630 ca         1 EEV      -0.184200
     26 CBL          4.0150    -0.2460     2.7510 c3         1 EEV       0.156500
     27 CBM          7.4920     7.6470     6.8980 c3         1 EEV       0.143100
     28 CBP          1.4830    -1.4480    -4.2720 c3         1 EEV       0.569900
     29 FAD          0.2700    -2.1110    -4.0630 f          1 EEV      -0.206300
     30 FAE          1.7710    -1.4230    -5.6410 f          1 EEV      -0.206300
     31 FAF          2.5050    -2.1190    -3.5920 f          1 EEV      -0.206300
     32 NAB         11.4530     7.6740     5.1900 n1         1 EEV      -0.379800
     33 NAX          6.0440     9.5720     7.3420 ns         1 EEV      -0.177900
     34 NAY          3.4350    -0.0010     1.3310 nu         1 EEV      -0.517900
     35 NBN          6.2110     0.4610     4.4890 n3         1 EEV      -0.540600
     36 NBO          8.8910     5.6600     6.6150 na         1 EEV       0.422600
     37 OAZ          6.2710     6.9130     6.7450 os         1 EEV      -0.399600
     38 SBA         -0.5890    -0.0070    -1.6560 ss         1 EEV      -0.257900
     39 H1          -0.5610    -0.0010     3.2340 h5         1 EEV      -0.001900
     40 H2           8.4760     1.5580     3.3100 hc         1 EEV       0.015033
     41 H3          10.0660     2.0330     3.9240 hc         1 EEV       0.015033
     42 H4           9.2830     0.5680     4.5340 hc         1 EEV       0.015033
     43 H5           6.0120     2.1340     7.5760 ha         1 EEV       0.106000
     44 H6           6.7400     4.4260     8.0740 ha         1 EEV       0.110000
     45 H7           3.0070    -0.0010    -1.5440 ha         1 EEV       0.119000
     46 H8          10.5180     4.2740     4.1300 ha         1 EEV       0.136000
     47 H9           6.0020    -0.3730     1.9380 hc         1 EEV       0.028450
     48 H10          5.2590    -1.9410     2.3020 hc         1 EEV       0.028450
     49 H11          4.7970     1.7520     2.5970 hc         1 EEV       0.028450
     50 H12          3.2270     1.6420     3.4130 hc         1 EEV       0.028450
     51 H13          5.4480    -1.4760     4.7160 h1         1 EEV       0.014200
     52 H14          7.0370    -1.3830     3.9370 h1         1 EEV       0.014200
     53 H15          5.0500     2.1200     5.0230 h1         1 EEV       0.014200
     54 H16          4.3010     0.5460     5.3430 h1         1 EEV       0.014200
     55 H17          4.3360     7.1040     6.0670 h1         1 EEV       0.040700
     56 H18          5.5930     7.6680     4.9530 h1         1 EEV       0.040700
     57 H19          8.0850     9.5170     7.7720 h1         1 EEV       0.024700
     58 H20          7.0690     8.5110     8.8180 h1         1 EEV       0.024700
     59 H21          7.8310    -0.1530     5.6450 h1         1 EEV       0.016700
     60 H22          6.3530     0.1760     6.5600 h1         1 EEV       0.016700
     61 H23          2.3060     0.5100    -3.9390 hc         1 EEV       0.057200
     62 H24          0.5790     0.5020    -4.3230 hc         1 EEV       0.057200
     63 H25          8.1690     6.3340     8.4590 h1         1 EEV       0.048200
     64 H26          9.4430     7.3320     7.7440 h1         1 EEV       0.048200
     65 H27          3.3440    -0.8830     3.3140 h1         1 EEV       0.064700
     66 H28          7.8330     7.9890     5.9280 h1         1 EEV       0.029700
     67 H29          5.9050    10.5150     7.6460 hn         1 EEV       0.188500
     68 H30          3.9800    -0.0230     0.4920 hn         1 EEV       0.307800
     69 CAT          1.3660    -0.0040    -3.7770 c3         1 EEV       0.014800
     70 CAA          9.1170     1.5790     4.1830 c3         1 EEV       0.048200
     71 CAG         10.7510     6.8060     5.4000 ch         1 EEV       0.218500
     72 OAC          4.1590     9.6640     6.2150 o          1 EEV      -0.677500
@<TRIPOS>BOND
     1     1     2 ar  
     2     1     5 ar  
     3     1    38 1   
     4     2     3 ar  
     5     2     9 1   
     6     3     4 ar  
     7     3    34 1   
     8     4     6 ar  
     9     5     6 ar  
    10     6    39 1   
    11     7     8 ar  
    12     7    23 ar  
    13     7    43 1   
    14     8    25 ar  
    15     8    44 1   
    16     9    21 2   
    17     9    45 1   
    18    10    22 2   
    19    10    24 1   
    20    10    46 1   
    21    11    13 1   
    22    11    26 1   
    23    11    47 1   
    24    11    48 1   
    25    12    14 1   
    26    12    26 1   
    27    12    49 1   
    28    12    50 1   
    29    13    35 1   
    30    13    51 1   
    31    13    52 1   
    32    14    35 1   
    33    14    53 1   
    34    14    54 1   
    35    15    19 1   
    36    15    37 1   
    37    15    55 1   
    38    15    56 1   
    39    16    27 1   
    40    16    33 1   
    41    16    57 1   
    42    16    58 1   
    43    17    23 1   
    44    17    35 1   
    45    17    59 1   
    46    17    60 1   
    47    18    27 1   
    48    18    36 1   
    49    18    63 1   
    50    18    64 1   
    51    19    33 1   
    52    19    72 2   
    53    20    23 ar  
    54    20    24 ar  
    55    20    70 1   
    56    21    38 1   
    57    21    69 1   
    58    22    36 1   
    59    22    71 1   
    60    24    25 ar  
    61    25    36 1   
    62    26    34 1   
    63    26    65 1   
    64    27    37 1   
    65    27    66 1   
    66    28    29 1   
    67    28    30 1   
    68    28    31 1   
    69    28    69 1   
    70    32    71 3   
    71    33    67 1   
    72    34    68 1   
    73    40    70 1   
    74    41    70 1   
    75    42    70 1   
    76    61    69 1   
    77    62    69 1   
@<TRIPOS>SUBSTRUCTURE
     1 EEV         1 TEMP              0 ****  ****    0 ROOT
