@<TRIPOS>MOLECULE
molecule
   72    77     1     0     0
SMALL
bcc


@<TRIPOS>ATOM
      1 C4           0.0000     0.0000     0.0000 ca         1 EEV       0.551600
      2 C5           1.3970     0.0000     0.0000 ca         1 EEV      -0.398400
      3 C6           2.0530     0.0000     1.2580 ca         1 EEV       0.766200
      4 N1           1.3210    -0.0000     2.3620 nb         1 EEV      -0.832000
      5 N3          -0.6510     0.0000     1.1700 nb         1 EEV      -0.762000
      6 C2           0.0010    -0.0000     2.3080 ca         1 EEV       0.740900
      7 CAI          6.8180     2.5780     7.0050 ca         1 EEV      -0.092000
      8 CAJ          7.2270     3.8620     7.2880 ca         1 EEV      -0.141000
      9 CAK          1.9420    -0.0010    -1.3450 cc         1 EEV      -0.074200
     10 CAL          9.9050     4.5100     4.9910 cd         1 EEV      -0.115200
     11 CAM          5.3860    -0.9200     2.6420 c3         1 EEV      -0.090400
     12 CAN          4.1970     1.1760     3.2920 c3         1 EEV      -0.090400
     13 CAO          6.0600    -0.9210     4.0160 c3         1 EEV       0.163800
     14 CAP          4.9050     1.1140     4.6470 c3         1 EEV       0.163800
     15 CAQ          5.2850     7.6210     5.9910 c3         1 EEV       0.070400
     16 CAR          7.2290     8.8530     7.8020 c3         1 EEV       0.076000
     17 CAS          6.9780     0.5090     5.7410 c3         1 EEV       0.212100
     18 CAU          8.5540     6.7490     7.5350 c3         1 EEV       0.060300
     19 CBB          5.1360     9.0170     6.5290 c          1 EEV       0.667500
     20 CBC          8.4550     2.3850     5.2710 ca         1 EEV       0.005700
     21 CBD          1.0390    -0.0010    -2.3070 cd         1 EEV      -0.095600
     22 CBE          9.8830     5.6960     5.6550 cc         1 EEV       0.017200
     23 CBF          7.4360     1.8450     5.9990 ca         1 EEV      -0.118300
     24 CBH          8.8930     3.6880     5.5440 ca         1 EEV      -0.119800
     25 CBK          8.2690     4.4340     6.5630 ca         1 EEV      -0.003200
     26 CBL          4.0150    -0.2460     2.7510 c3         1 EEV       0.255500
     27 CBM          7.4920     7.6470     6.8980 c3         1 EEV       0.103100
     28 CBP          1.4830    -1.4480    -4.2720 c3         1 EEV       0.615900
     29 FAD          0.2700    -2.1110    -4.0630 f          1 EEV      -0.223967
     30 FAE          1.7710    -1.4230    -5.6410 f          1 EEV      -0.223967
     31 FAF          2.5050    -2.1190    -3.5920 f          1 EEV      -0.223967
     32 NAB         11.4530     7.6740     5.1900 n1         1 EEV      -0.354800
     33 NAX          6.0440     9.5720     7.3420 ns         1 EEV      -0.575900
     34 NAY          3.4350    -0.0010     1.3310 nu         1 EEV      -0.912900
     35 NBN          6.2110     0.4610     4.4890 n3         1 EEV      -0.730600
     36 NBO          8.8910     5.6600     6.6150 na         1 EEV      -0.051400
     37 OAZ          6.2710     6.9130     6.7450 os         1 EEV      -0.409600
     38 SBA         -0.5890    -0.0070    -1.6560 ss         1 EEV      -0.108900
     39 H1          -0.5610    -0.0010     3.2340 h5         1 EEV       0.061100
     40 H2           8.4760     1.5580     3.3100 hc         1 EEV       0.047700
     41 H3          10.0660     2.0330     3.9240 hc         1 EEV       0.047700
     42 H4           9.2830     0.5680     4.5340 hc         1 EEV       0.047700
     43 H5           6.0120     2.1340     7.5760 ha         1 EEV       0.133000
     44 H6           6.7400     4.4260     8.0740 ha         1 EEV       0.136000
     45 H7           3.0070    -0.0010    -1.5440 ha         1 EEV       0.146000
     46 H8          10.5180     4.2740     4.1300 ha         1 EEV       0.163000
     47 H9           6.0020    -0.3730     1.9380 hc         1 EEV       0.058700
     48 H10          5.2590    -1.9410     2.3020 hc         1 EEV       0.058700
     49 H11          4.7970     1.7520     2.5970 hc         1 EEV       0.058700
     50 H12          3.2270     1.6420     3.4130 hc         1 EEV       0.058700
     51 H13          5.4480    -1.4760     4.7160 h1         1 EEV       0.039200
     52 H14          7.0370    -1.3830     3.9370 h1         1 EEV       0.039200
     53 H15          5.0500     2.1200     5.0230 h1         1 EEV       0.039200
     54 H16          4.3010     0.5460     5.3430 h1         1 EEV       0.039200
     55 H17          4.3360     7.1040     6.0670 h1         1 EEV       0.085700
     56 H18          5.5930     7.6680     4.9530 h1         1 EEV       0.085700
     57 H19          8.0850     9.5170     7.7720 h1         1 EEV       0.052200
     58 H20          7.0690     8.5110     8.8180 h1         1 EEV       0.052200
     59 H21          7.8310    -0.1530     5.6450 h1         1 EEV       0.039700
     60 H22          6.3530     0.1760     6.5600 h1         1 EEV       0.039700
     61 H23          2.3060     0.5100    -3.9390 hc         1 EEV       0.089200
     62 H24          0.5790     0.5020    -4.3230 hc         1 EEV       0.089200
     63 H25          8.1690     6.3340     8.4590 h1         1 EEV       0.076700
     64 H26          9.4430     7.3320     7.7440 h1         1 EEV       0.076700
     65 H27          3.3440    -0.8830     3.3140 h1         1 EEV       0.090700
     66 H28          7.8330     7.9890     5.9280 h1         1 EEV       0.061700
     67 H29          5.9050    10.5150     7.6460 hn         1 EEV       0.333500
     68 H30          3.9800    -0.0230     0.4920 hn         1 EEV       0.452800
     69 CAT          1.3660    -0.0040    -3.7770 c3         1 EEV      -0.050200
     70 CAA          9.1170     1.5790     4.1830 c3         1 EEV      -0.046800
     71 CAG         10.7510     6.8060     5.4000 cg         1 EEV       0.220500
     72 OAC          4.1590     9.6640     6.2150 o          1 EEV      -0.639500
@<TRIPOS>BOND
     1    32    71 3
     2    71    22 1
     3    22    10 2
     4    22    36 1
     5    69    21 1
     6    69    28 1
     7    18    36 1
     8    18    27 1
     9    10    24 1
    10    36    25 1
    11    21    38 1
    12    21     9 2
    13    38     1 1
    14    31    28 1
    15     9     2 1
    16    25    24 ar
    17    25     8 ar
    18    24    20 ar
    19     1     2 ar
    20     1     5 ar
    21    11    13 1
    22    11    26 1
    23    16    27 1
    24    16    33 1
    25    28    29 1
    26    28    30 1
    27     2     3 ar
    28    27    37 1
    29    37    15 1
    30     5     6 ar
    31    13    35 1
    32    70    20 1
    33     3    34 1
    34     3     4 ar
    35     8     7 ar
    36    20    23 ar
    37    34    26 1
    38     6     4 ar
    39    26    12 1
    40    33    19 1
    41     7    23 ar
    42    23    17 1
    43    15    19 1
    44    19    72 2
    45    35    17 1
    46    35    14 1
    47    12    14 1
    48     6    39 1
    49    70    40 1
    50    70    41 1
    51    70    42 1
    52     7    43 1
    53     8    44 1
    54     9    45 1
    55    10    46 1
    56    11    47 1
    57    11    48 1
    58    12    49 1
    59    12    50 1
    60    13    51 1
    61    13    52 1
    62    14    53 1
    63    14    54 1
    64    15    55 1
    65    15    56 1
    66    16    57 1
    67    16    58 1
    68    17    59 1
    69    17    60 1
    70    69    61 1
    71    69    62 1
    72    18    63 1
    73    18    64 1
    74    26    65 1
    75    27    66 1
    76    33    67 1
    77    34    68 1
@<TRIPOS>SUBSTRUCTURE
     1 EEV         1 TEMP              0 ****  ****    0 ROOT
