@<TRIPOS>MOLECULE
EEW
   49    50     1     0     0
SMALL
bcc


@<TRIPOS>ATOM
      1 C4           0.0000     0.0000     0.0000 c3         1 EEW      -0.306000
      2 C5           1.5330     0.0000     0.0000 c3         1 EEW      -0.086000
      3 C6           2.0170     0.0000     1.4520 c3         1 EEW       0.093000
      4 C11          3.7560     2.4310    -1.9510 c3         1 EEW      -0.414000
      5 C7           1.3110    -1.0700     2.2320 c2         1 EEW      -0.186000
      6 C9           5.3110    -0.4750     2.9750 c3         1 EEW      -0.124000
      7 C3          -0.4850    -1.3410     0.5560 c3         1 EEW      -0.019000
      8 C91          4.8420    -1.8380     3.4900 c3         1 EEW      -0.135000
      9 C81          4.5570     1.7730     2.1910 c3         1 EEW      -0.124000
     10 C82          3.3350     2.6530     1.9220 c3         1 EEW      -0.135000
     11 O7           3.4250    -0.2420     1.4820 os         1 EEW      -0.202000
     12 C2           0.2220    -1.6510     1.8440 c2         1 EEW      -0.464000
     13 P           -0.4990    -2.9160     2.9250 p5         1 EEW       1.330000
     14 OP1         -1.9850    -2.4710     3.3580 o          1 EEW      -0.629500
     15 OP2         -0.5630    -4.2050     2.2010 o          1 EEW      -0.629500
     16 OP3          0.4150    -3.0840     4.2390 os         1 EEW      -0.677000
     17 CP1          0.1700    -4.0790     5.2360 c3         1 EEW       0.172000
     18 N4          -0.4930     0.1720    -1.3730 nz         1 EEW       0.836000
     19 N5           2.0270     1.2000    -0.6830 n7         1 EEW      -0.070000
     20 O10          3.9430     0.2040    -1.1930 o          1 EEW      -0.389000
     21 H1          -0.3630     0.8050     0.6270 hx         1 EEW       0.134000
     22 H2           1.8970    -0.8880    -0.5040 h1         1 EEW       0.130000
     23 H3           1.4680     0.8900     1.7340 h1         1 EEW       0.064000
     24 H4           3.7210     1.4370    -2.3800 DU         1 EEW       0.253000
     25 H5           3.4230     2.6150    -0.9370 hc         1 EEW       0.134000
     26 H6           4.8040     2.7070    -1.9660 hc         1 EEW       0.134000
     27 H7           1.7400    -1.3750     3.1790 ha         1 EEW       0.148000
     28 H8           3.4190     0.4350     3.4290 h1         1 EEW       0.063000
     29 H9           5.8920     0.0200     3.7440 hc         1 EEW       0.063000
     30 H10          5.9240    -0.6140     2.0930 hc         1 EEW       0.063000
     31 H11         -0.2760    -2.1230    -0.1640 hc         1 EEW       0.085500
     32 H12         -1.5510    -1.2880     0.7370 hc         1 EEW       0.085500
     33 H13          5.6960    -2.4060     3.8390 hc         1 EEW       0.047333
     34 H14          4.1450    -1.6940     4.3070 hc         1 EEW       0.047333
     35 H15          4.3520    -2.3770     2.6880 hc         1 EEW       0.047333
     36 H16          5.1300     2.1910     3.0090 hc         1 EEW       0.063000
     37 H17          5.1750     1.7310     1.3020 hc         1 EEW       0.063000
     38 H18          2.5820     2.0760     1.3990 hc         1 EEW       0.047333
     39 H19          2.9300     3.0070     2.8630 hc         1 EEW       0.047333
     40 H20          3.6270     3.5010     1.3140 hc         1 EEW       0.047333
     41 H22          0.5020    -5.0440     4.8720 h1         1 EEW       0.002667
     42 H23          0.7140    -3.8270     6.1390 h1         1 EEW       0.002667
     43 H24         -0.8900    -4.1200     5.4520 h1         1 EEW       0.002667
     44 H25          0.0610    -0.3780    -1.9990 hn         1 EEW       0.015333
     45 H26         -0.4290     1.1370    -1.6320 hn         1 EEW       0.015333
     46 H28          1.4370     2.0040    -0.7680 hn         1 EEW       0.090000
     47 C8           4.0970     0.3680     2.5860 c3         1 EEW       0.058000
     48 C10          3.2490     1.1980    -1.2490 c3         1 EEW       0.192000
     49 H43         -1.4340    -0.1650    -1.4350 hn         1 EEW       0.015333
@<TRIPOS>BOND
     1     1     2 1   
     2     1     7 1   
     3     1    18 1   
     4     1    21 1   
     5     2     3 1   
     6     2    19 1   
     7     2    22 1   
     8     3     5 1   
     9     3    11 1   
    10     3    23 1   
    11     4    24 1   
    12     4    25 1   
    13     4    26 1   
    14     4    48 1   
    15     5    12 1   
    16     5    27 1   
    17     6     8 1   
    18     6    29 1   
    19     6    30 1   
    20     6    47 1   
    21     7    12 1   
    22     7    31 1   
    23     7    32 1   
    24     8    33 1   
    25     8    34 1   
    26     8    35 1   
    27     9    10 1   
    28     9    36 1   
    29     9    37 1   
    30     9    47 1   
    31    10    38 1   
    32    10    39 1   
    33    10    40 1   
    34    11    47 1   
    35    12    13 1   
    36    13    14 1   
    37    13    15 1   
    38    13    16 1   
    39    16    17 1   
    40    17    41 1   
    41    17    42 1   
    42    17    43 1   
    43    18    44 1   
    44    18    45 1   
    45    18    49 1   
    46    19    46 1   
    47    19    48 1   
    48    20    48 1   
    49    24    48 1   
    50    28    47 1   
@<TRIPOS>SUBSTRUCTURE
     1 EEW         1 TEMP              0 ****  ****    0 ROOT
