@<TRIPOS>MOLECULE
molecule
   49    49     1     0     0
SMALL
bcc


@<TRIPOS>ATOM
      1 C4           0.0000     0.0000     0.0000 c3         1 EEW       0.077500
      2 C5           1.5330     0.0000     0.0000 c3         1 EEW       0.082700
      3 C6           2.0170     0.0000     1.4520 c3         1 EEW       0.171300
      4 C11          3.7560     2.4310    -1.9510 c3         1 EEW      -0.412100
      5 C7           1.3110    -1.0700     2.2320 c2         1 EEW      -0.167200
      6 C9           5.3110    -0.4750     2.9750 c3         1 EEW      -0.094900
      7 C3          -0.4850    -1.3410     0.5560 c3         1 EEW      -0.021200
      8 C91          4.8420    -1.8380     3.4900 c3         1 EEW      -0.103600
      9 C81          4.5570     1.7730     2.1910 c3         1 EEW      -0.094900
     10 C82          3.3350     2.6530     1.9220 c3         1 EEW      -0.103600
     11 O7           3.4250    -0.2420     1.4820 os         1 EEW      -0.361600
     12 C2           0.2220    -1.6510     1.8440 c2         1 EEW      -0.214800
     13 P           -0.4990    -2.9160     2.9250 p5         1 EEW       1.184000
     14 OP1         -1.9850    -2.4710     3.3580 o          1 EEW      -0.795000
     15 OP2         -0.5630    -4.2050     2.2010 o          1 EEW      -0.795000
     16 OP3          0.4150    -3.0840     4.2390 os         1 EEW      -0.624200
     17 CP1          0.1700    -4.0790     5.2360 c3         1 EEW       0.219700
     18 N4          -0.4930     0.1720    -1.3730 nz         1 EEW      -0.809600
     19 N5           2.0270     1.2000    -0.6830 ns         1 EEW      -0.631900
     20 O10          3.9430     0.2040    -1.1930 o          1 EEW      -0.600100
     21 H1          -0.3630     0.8050     0.6270 hx         1 EEW       0.114700
     22 H2           1.8970    -0.8880    -0.5040 h1         1 EEW       0.114700
     23 H3           1.4680     0.8900     1.7340 h1         1 EEW       0.051700
     24 H4           3.7210     1.4370    -2.3800 hc         1 EEW       0.162367
     25 H5           3.4230     2.6150    -0.9370 hc         1 EEW       0.162367
     26 H6           4.8040     2.7070    -1.9660 hc         1 EEW       0.162367
     27 H7           1.7400    -1.3750     3.1790 ha         1 EEW       0.172000
     28 H8           3.4190     0.4350     3.4290 h1         1 EEW       0.048700
     29 H9           5.8920     0.0200     3.7440 hc         1 EEW       0.053200
     30 H10          5.9240    -0.6140     2.0930 hc         1 EEW       0.053200
     31 H11         -0.2760    -2.1230    -0.1640 hc         1 EEW       0.086200
     32 H12         -1.5510    -1.2880     0.7370 hc         1 EEW       0.086200
     33 H13          5.6960    -2.4060     3.8390 hc         1 EEW       0.038033
     34 H14          4.1450    -1.6940     4.3070 hc         1 EEW       0.038033
     35 H15          4.3520    -2.3770     2.6880 hc         1 EEW       0.038033
     36 H16          5.1300     2.1910     3.0090 hc         1 EEW       0.053200
     37 H17          5.1750     1.7310     1.3020 hc         1 EEW       0.053200
     38 H18          2.5820     2.0760     1.3990 hc         1 EEW       0.038033
     39 H19          2.9300     3.0070     2.8630 hc         1 EEW       0.038033
     40 H20          3.6270     3.5010     1.3140 hc         1 EEW       0.038033
     41 H22          0.5020    -5.0440     4.8720 h1         1 EEW       0.023367
     42 H23          0.7140    -3.8270     6.1390 h1         1 EEW       0.023367
     43 H24         -0.8900    -4.1200     5.4520 h1         1 EEW       0.023367
     44 H25          0.0610    -0.3780    -1.9990 hn         1 EEW       0.449133
     45 H26         -0.4290     1.1370    -1.6320 hn         1 EEW       0.449133
     46 H28          1.4370     2.0040    -0.7680 hn         1 EEW       0.308500
     47 C8           4.0970     0.3680     2.5860 c3         1 EEW       0.138100
     48 C10          3.2490     1.1980    -1.2490 c          1 EEW       0.630100
     49 H43         -1.4340    -0.1650    -1.4350 hn         1 EEW       0.449133
@<TRIPOS>BOND
     1    18     1 1
     2     4    48 1
     3    20    48 2
     4     1     7 1
     5     1     2 1
     6    48    19 1
     7     7    12 1
     8    19     2 1
     9     2     3 1
    10    14    13 1
    11    12    13 1
    12    12     5 2
    13    17    16 1
    14    16    13 1
    15    13    15 1
    16     3     5 1
    17     3    11 1
    18    11    47 1
    19    10     9 1
    20    47     9 1
    21    47     6 1
    22     6     8 1
    23     1    21 1
    24     2    22 1
    25     3    23 1
    26     4    24 1
    27     4    25 1
    28     4    26 1
    29     5    27 1
    30    47    28 1
    31     6    29 1
    32     6    30 1
    33     7    31 1
    34     7    32 1
    35     8    33 1
    36     8    34 1
    37     8    35 1
    38     9    36 1
    39     9    37 1
    40    10    38 1
    41    10    39 1
    42    10    40 1
    43    17    41 1
    44    17    42 1
    45    17    43 1
    46    18    44 1
    47    18    45 1
    48    19    46 1
    49    49    18 1
@<TRIPOS>SUBSTRUCTURE
     1 EEW         1 TEMP              0 ****  ****    0 ROOT
