@<TRIPOS>MOLECULE
molecule
   27    28     1     0     0
SMALL
bcc


@<TRIPOS>ATOM
      1 C10          0.0000     0.0000     0.0000 c          1 EEY       0.673700
      2 N12          1.3480     0.0000     0.0000 ns         1 EEY      -0.471100
      3 C13          2.0440     0.0000     1.2080 ca         1 EEY       0.089600
      4 C15          3.9350    -0.6180     2.5350 ca         1 EEY       0.438200
      5 C17          2.2530     0.6290     3.5050 ca         1 EEY       0.438200
      6 C01         -2.1220     0.3290    -3.6650 ca         1 EEY      -0.040000
      7 C02         -2.8190     0.2220    -2.4750 ca         1 EEY      -0.139000
      8 C03         -2.1350     0.1150    -1.2790 ca         1 EEY       0.111400
      9 C04         -0.7380     0.1140    -1.2750 ca         1 EEY      -0.154600
     10 C05         -0.0430     0.2220    -2.4810 ca         1 EEY      -0.041000
     11 C06         -0.7390     0.3300    -3.6670 ca         1 EEY      -0.166200
     12 C14          3.2770    -0.6420     1.3230 ca         1 EEY      -0.273300
     13 C18          1.5300     0.6470     2.3300 ca         1 EEY      -0.273300
     14 N07         -0.0020     0.4380    -4.9460 no         1 EEY       0.294200
     15 N16          3.4120     0.0020     3.5760 nb         1 EEY      -0.702000
     16 O08          1.2160     0.4380    -4.9510 o          1 EEY      -0.198000
     17 O09         -0.6140     0.5270    -5.9960 o          1 EEY      -0.198000
     18 O11         -0.6080    -0.0990     1.0480 o          1 EEY      -0.560100
     19 H1           1.8490    -0.0330    -0.8660 hn         1 EEY       0.330500
     20 H2           4.8910    -1.1170     2.6350 h4         1 EEY       0.027600
     21 H3           1.8600     1.1280     4.3830 h4         1 EEY       0.027600
     22 H4          -2.6630     0.4130    -4.6000 ha         1 EEY       0.176000
     23 H5          -3.9020     0.2230    -2.4810 ha         1 EEY       0.168000
     24 H6           1.0410     0.2230    -2.4860 ha         1 EEY       0.165000
     25 H7           3.7130    -1.1520     0.4720 ha         1 EEY       0.151500
     26 H8           0.5800     1.1640     2.2780 ha         1 EEY       0.151500
     27 Cl1         -3.0100    -0.0190     0.2150 cl         1 EEY      -0.025400
@<TRIPOS>BOND
     1     5    13 ar
     2     5    15 ar
     3    13     3 ar
     4    15     4 ar
     5     3    12 ar
     6     3     2 1
     7     4    12 ar
     8    18     1 2
     9     1     2 1
    10     1     9 1
    11     8     9 ar
    12     8     7 ar
    13     9    10 ar
    14     7     6 ar
    15    10    11 ar
    16     6    11 ar
    17    11    14 1
    18    14    17 1
    19    14    16 1
    20     8    27 1
    21     2    19 1
    22     4    20 1
    23     5    21 1
    24     6    22 1
    25     7    23 1
    26    10    24 1
    27    12    25 1
    28    13    26 1
@<TRIPOS>SUBSTRUCTURE
     1 EEY         1 TEMP              0 ****  ****    0 ROOT
