@<TRIPOS>MOLECULE
EEY
   27    28     1     0     0
SMALL
bcc


@<TRIPOS>ATOM
      1 C10          0.0000     0.0000     0.0000 c          1 EEY       0.584700
      2 N12          1.3480     0.0000     0.0000 ns         1 EEY      -0.024100
      3 C13          2.0440     0.0000     1.2080 ca         1 EEY      -0.063400
      4 C15          3.9350    -0.6180     2.5350 ca         1 EEY       0.425700
      5 C17          2.2530     0.6290     3.5050 ca         1 EEY       0.425700
      6 C01         -2.1220     0.3290    -3.6650 ca         1 EEY       0.023000
      7 C02         -2.8190     0.2220    -2.4750 ca         1 EEY      -0.131000
      8 C03         -2.1350     0.1150    -1.2790 ca         1 EEY       0.049400
      9 C04         -0.7380     0.1140    -1.2750 ca         1 EEY      -0.182600
     10 C05         -0.0430     0.2220    -2.4810 ca         1 EEY       0.015000
     11 C06         -0.7390     0.3300    -3.6670 ca         1 EEY      -0.461200
     12 C14          3.2770    -0.6420     1.3230 ca         1 EEY      -0.240300
     13 C18          1.5300     0.6470     2.3300 ca         1 EEY      -0.240300
     14 N07         -0.0020     0.4380    -4.9460 no         1 EEY       1.048200
     15 N16          3.4120     0.0020     3.5760 nb         1 EEY      -0.594000
     16 O08          1.2160     0.4380    -4.9510 o          1 EEY      -0.446500
     17 O09         -0.6140     0.5270    -5.9960 o          1 EEY      -0.446500
     18 O11         -0.6080    -0.0990     1.0480 o          1 EEY      -0.620100
     19 H1           1.8490    -0.0330    -0.8660 hn         1 EEY       0.176500
     20 H2           4.8910    -1.1170     2.6350 h4         1 EEY      -0.018900
     21 H3           1.8600     1.1280     4.3830 h4         1 EEY      -0.018900
     22 H4          -2.6630     0.4130    -4.6000 ha         1 EEY       0.136000
     23 H5          -3.9020     0.2230    -2.4810 ha         1 EEY       0.130000
     24 H6           1.0410     0.2230    -2.4860 ha         1 EEY       0.131000
     25 H7           3.7130    -1.1520     0.4720 ha         1 EEY       0.131000
     26 H8           0.5800     1.1640     2.2780 ha         1 EEY       0.131000
     27 Cl1         -3.0100    -0.0190     0.2150 cl         1 EEY       0.078600
@<TRIPOS>BOND
     1     1     2 1   
     2     1     9 1   
     3     1    18 2   
     4     2     3 1   
     5     2    19 1   
     6     3    12 ar  
     7     3    13 ar  
     8     4    12 ar  
     9     4    15 ar  
    10     4    20 1   
    11     5    13 ar  
    12     5    15 ar  
    13     5    21 1   
    14     6     7 ar  
    15     6    11 ar  
    16     6    22 1   
    17     7     8 ar  
    18     7    23 1   
    19     8     9 ar  
    20     8    27 1   
    21     9    10 ar  
    22    10    11 ar  
    23    10    24 1   
    24    11    14 1   
    25    12    25 1   
    26    13    26 1   
    27    14    16 1   
    28    14    17 1   
@<TRIPOS>SUBSTRUCTURE
     1 EEY         1 TEMP              0 ****  ****    0 ROOT
