@<TRIPOS>MOLECULE
molecule
   54    56     1     0     0
SMALL
bcc


@<TRIPOS>ATOM
      1 C1           0.0000     0.0000     0.0000 ca         1 EEZ      -0.059000
      2 C2           1.3840     0.0000     0.0000 ca         1 EEZ      -0.098900
      3 C3           2.0620     0.0000     1.2140 ca         1 EEZ       0.656600
      4 C11          5.3830     0.7100     2.4020 ca         1 EEZ      -0.093300
      5 C12          5.8450     1.4670     3.4620 ca         1 EEZ      -0.109500
      6 C13          7.0590     2.1190     3.3690 ca         1 EEZ      -0.130500
      7 C14          7.8140     2.0140     2.2160 ca         1 EEZ      -0.124000
      8 C15          7.3530     1.2560     1.1560 ca         1 EEZ      -0.130500
      9 C16          6.1400     0.6000     1.2510 ca         1 EEZ      -0.109500
     10 C17          4.2850    -1.4420     2.9600 c3         1 EEZ      -0.110100
     11 C18         -2.7720     0.6380     0.3170 c          1 EEZ       0.658100
     12 C20         -4.2750     0.5380     0.3040 c3         1 EEZ      -0.117100
     13 C21         -4.8200     1.3280    -0.8590 ca         1 EEZ      -0.017300
     14 C22         -5.1360     2.6640    -0.6990 ca         1 EEZ      -0.133000
     15 C23         -5.6300     3.3900    -1.7670 ca         1 EEZ      -0.026000
     16 C24         -5.8090     2.7800    -2.9950 ca         1 EEZ      -0.294500
     17 C25         -5.4930     1.4430    -3.1540 ca         1 EEZ      -0.026000
     18 C26         -4.9990     0.7180    -2.0860 ca         1 EEZ      -0.133000
     19 C28         -4.9650     4.3850    -5.1630 c3         1 EEZ      -0.204600
     20 C29         -5.3870     5.2190    -6.3740 c3         1 EEZ      -0.074100
     21 N4           1.3990     0.0010     2.3580 nb         1 EEZ      -0.746000
     22 C5           0.0800     0.0000     2.3960 ca         1 EEZ       0.430200
     23 C6          -0.6630     0.0050     1.2260 ca         1 EEZ      -0.099700
     24 O7           3.4190    -0.0000     1.2240 os         1 EEZ      -0.423100
     25 Cl8          2.2620    -0.0010    -1.4970 cl         1 EEZ      -0.075400
     26 N9          -2.0640     0.0060     1.2750 ns         1 EEZ      -0.476100
     27 C10          4.0580    -0.0000     2.5030 c3         1 EEZ       0.191400
     28 O19         -2.1990     1.2860    -0.5320 o          1 EEZ      -0.579100
     29 S27         -6.4400     3.7050    -4.3540 sy         1 EEZ       1.192300
     30 O30         -7.0590     2.7300    -5.1840 o          1 EEZ      -0.620300
     31 O31         -7.2010     4.7410    -3.7500 o          1 EEZ      -0.620300
     32 H1          -0.5550     0.0020    -0.9310 ha         1 EEZ       0.183000
     33 H2           5.2520     1.5510     4.3650 ha         1 EEZ       0.137500
     34 H3           7.4210     2.7120     4.2010 ha         1 EEZ       0.130500
     35 H4           8.7650     2.5260     2.1430 ha         1 EEZ       0.129000
     36 H5           7.9460     1.1720     0.2530 ha         1 EEZ       0.130500
     37 H6           5.7790     0.0060     0.4190 ha         1 EEZ       0.137500
     38 H7           5.1160    -1.4750     3.6540 hc         1 EEZ       0.048700
     39 H8           3.3910    -1.8110     3.4490 hc         1 EEZ       0.048700
     40 H9           4.5080    -2.0620     2.1000 hc         1 EEZ       0.048700
     41 H10         -4.6720     0.9370     1.2290 hc         1 EEZ       0.073700
     42 H11         -4.5670    -0.5010     0.2030 hc         1 EEZ       0.073700
     43 H12         -4.9960     3.1430     0.2620 ha         1 EEZ       0.136500
     44 H13         -5.8770     4.4370    -1.6420 ha         1 EEZ       0.152000
     45 H14         -5.6330     0.9640    -4.1160 ha         1 EEZ       0.152000
     46 H15         -4.7510    -0.3290    -2.2110 ha         1 EEZ       0.136500
     47 H16         -4.4530     5.0180    -4.4490 h1         1 EEZ       0.100200
     48 H17         -4.3000     3.5920    -5.4840 h1         1 EEZ       0.100200
     49 H18         -4.5070     5.6270    -6.8560 hc         1 EEZ       0.051700
     50 H19         -5.9240     4.5910    -7.0750 hc         1 EEZ       0.051700
     51 H20         -6.0290     6.0290    -6.0490 hc         1 EEZ       0.051700
     52 H21         -0.4280     0.0030     3.3530 h4         1 EEZ       0.026100
     53 H22         -2.5390    -0.4820     2.0080 hn         1 EEZ       0.326500
     54 H23          3.4280     0.5110     3.2210 h1         1 EEZ       0.078700
@<TRIPOS>BOND
     1    30    29 2
     2    29    16 1
     3    29    31 2
     4    29    19 1
     5    15    14 ar
     6    15    16 ar
     7    14    13 ar
     8    16    17 ar
     9    13    18 ar
    10    13    12 1
    11    17    18 ar
    12    19    20 1
    13    12    11 1
    14    11    28 2
    15    11    26 1
    16    26    23 1
    17    23    22 ar
    18    23     1 ar
    19    22    21 ar
    20     1     2 ar
    21    21     3 ar
    22     2     3 ar
    23     2    25 1
    24     3    24 1
    25     8     7 ar
    26     8     9 ar
    27     7     6 ar
    28     9     4 ar
    29    24    27 1
    30     6     5 ar
    31     4     5 ar
    32     4    27 1
    33    27    10 1
    34     1    32 1
    35     5    33 1
    36     6    34 1
    37     7    35 1
    38     8    36 1
    39     9    37 1
    40    10    38 1
    41    10    39 1
    42    10    40 1
    43    12    41 1
    44    12    42 1
    45    14    43 1
    46    15    44 1
    47    17    45 1
    48    18    46 1
    49    19    47 1
    50    19    48 1
    51    20    49 1
    52    20    50 1
    53    20    51 1
    54    22    52 1
    55    26    53 1
    56    27    54 1
@<TRIPOS>SUBSTRUCTURE
     1 EEZ         1 TEMP              0 ****  ****    0 ROOT
