@<TRIPOS>MOLECULE
EEZ
   54    56     1     0     0
SMALL
bcc


@<TRIPOS>ATOM
      1 C1           0.0000     0.0000     0.0000 ca         1 EEZ      -0.034000
      2 C2           1.3840     0.0000     0.0000 ca         1 EEZ      -0.174900
      3 C3           2.0620     0.0000     1.2140 ca         1 EEZ       0.619600
      4 C11          5.3830     0.7100     2.4020 ca         1 EEZ      -0.107300
      5 C12          5.8450     1.4670     3.4620 ca         1 EEZ      -0.083000
      6 C13          7.0590     2.1190     3.3690 ca         1 EEZ      -0.103000
      7 C14          7.8140     2.0140     2.2160 ca         1 EEZ      -0.098000
      8 C15          7.3530     1.2560     1.1560 ca         1 EEZ      -0.103000
      9 C16          6.1400     0.6000     1.2510 ca         1 EEZ      -0.083000
     10 C17          4.2850    -1.4420     2.9600 c3         1 EEZ      -0.024100
     11 C18         -2.7720     0.6380     0.3170 c          1 EEZ       0.559100
     12 C20         -4.2750     0.5380     0.3040 c3         1 EEZ      -0.046100
     13 C21         -4.8200     1.3280    -0.8590 ca         1 EEZ      -0.022300
     14 C22         -5.1360     2.6640    -0.6990 ca         1 EEZ      -0.117000
     15 C23         -5.6300     3.3900    -1.7670 ca         1 EEZ       0.007500
     16 C24         -5.8090     2.7800    -2.9950 ca         1 EEZ      -0.156500
     17 C25         -5.4930     1.4430    -3.1540 ca         1 EEZ       0.007500
     18 C26         -4.9990     0.7180    -2.0860 ca         1 EEZ      -0.117000
     19 C28         -4.9650     4.3850    -5.1630 c3         1 EEZ       0.006400
     20 C29         -5.3870     5.2190    -6.3740 c3         1 EEZ       0.037900
     21 N4           1.3990     0.0010     2.3580 nb         1 EEZ      -0.637000
     22 C5           0.0800     0.0000     2.3960 ca         1 EEZ       0.418200
     23 C6          -0.6630     0.0050     1.2260 ca         1 EEZ      -0.244700
     24 O7           3.4190    -0.0000     1.2240 os         1 EEZ      -0.412100
     25 Cl8          2.2620    -0.0010    -1.4970 cl         1 EEZ       0.016600
     26 N9          -2.0640     0.0060     1.2750 ns         1 EEZ      -0.028100
     27 C10          4.0580    -0.0000     2.5030 c3         1 EEZ       0.229400
     28 O19         -2.1990     1.2860    -0.5320 o          1 EEZ      -0.624100
     29 S27         -6.4400     3.7050    -4.3540 sy         1 EEZ       0.873300
     30 O30         -7.0590     2.7300    -5.1840 o          1 EEZ      -0.589300
     31 O31         -7.2010     4.7410    -3.7500 o          1 EEZ      -0.589300
     32 H1          -0.5550     0.0020    -0.9310 ha         1 EEZ       0.154000
     33 H2           5.2520     1.5510     4.3650 ha         1 EEZ       0.110500
     34 H3           7.4210     2.7120     4.2010 ha         1 EEZ       0.103000
     35 H4           8.7650     2.5260     2.1430 ha         1 EEZ       0.102000
     36 H5           7.9460     1.1720     0.2530 ha         1 EEZ       0.103000
     37 H6           5.7790     0.0060     0.4190 ha         1 EEZ       0.110500
     38 H7           5.1160    -1.4750     3.6540 hc         1 EEZ       0.015367
     39 H8           3.3910    -1.8110     3.4490 hc         1 EEZ       0.015367
     40 H9           4.5080    -2.0620     2.1000 hc         1 EEZ       0.015367
     41 H10         -4.6720     0.9370     1.2290 hc         1 EEZ       0.035700
     42 H11         -4.5670    -0.5010     0.2030 hc         1 EEZ       0.035700
     43 H12         -4.9960     3.1430     0.2620 ha         1 EEZ       0.108500
     44 H13         -5.8770     4.4370    -1.6420 ha         1 EEZ       0.122500
     45 H14         -5.6330     0.9640    -4.1160 ha         1 EEZ       0.122500
     46 H15         -4.7510    -0.3290    -2.2110 ha         1 EEZ       0.108500
     47 H16         -4.4530     5.0180    -4.4490 h1         1 EEZ       0.063700
     48 H17         -4.3000     3.5920    -5.4840 h1         1 EEZ       0.063700
     49 H18         -4.5070     5.6270    -6.8560 hc         1 EEZ       0.012367
     50 H19         -5.9240     4.5910    -7.0750 hc         1 EEZ       0.012367
     51 H20         -6.0290     6.0290    -6.0490 hc         1 EEZ       0.012367
     52 H21         -0.4280     0.0030     3.3530 h4         1 EEZ      -0.018900
     53 H22         -2.5390    -0.4820     2.0080 hn         1 EEZ       0.168500
     54 H23          3.4280     0.5110     3.2210 h1         1 EEZ       0.044700
@<TRIPOS>BOND
     1     1     2 ar  
     2     1    23 ar  
     3     1    32 1   
     4     2     3 ar  
     5     2    25 1   
     6     3    21 ar  
     7     3    24 1   
     8     4     5 ar  
     9     4     9 ar  
    10     4    27 1   
    11     5     6 ar  
    12     5    33 1   
    13     6     7 ar  
    14     6    34 1   
    15     7     8 ar  
    16     7    35 1   
    17     8     9 ar  
    18     8    36 1   
    19     9    37 1   
    20    10    27 1   
    21    10    38 1   
    22    10    39 1   
    23    10    40 1   
    24    11    12 1   
    25    11    26 1   
    26    11    28 2   
    27    12    13 1   
    28    12    41 1   
    29    12    42 1   
    30    13    14 ar  
    31    13    18 ar  
    32    14    15 ar  
    33    14    43 1   
    34    15    16 ar  
    35    15    44 1   
    36    16    17 ar  
    37    16    29 1   
    38    17    18 ar  
    39    17    45 1   
    40    18    46 1   
    41    19    20 1   
    42    19    29 1   
    43    19    47 1   
    44    19    48 1   
    45    20    49 1   
    46    20    50 1   
    47    20    51 1   
    48    21    22 ar  
    49    22    23 ar  
    50    22    52 1   
    51    23    26 1   
    52    24    27 1   
    53    26    53 1   
    54    27    54 1   
    55    29    30 2   
    56    29    31 2   
@<TRIPOS>SUBSTRUCTURE
     1 EEZ         1 TEMP              0 ****  ****    0 ROOT
