@<TRIPOS>MOLECULE
EF1
   64    64     1     0     0
SMALL
bcc


@<TRIPOS>ATOM
      1 O23         1.9280    2.7660   -3.9780 o         1 EF1     -0.262000
      2 C21         2.3930    2.1380   -3.0380 c2        1 EF1      0.319000
      3 O22         3.1640    2.8330   -2.1470 os        1 EF1     -0.700000
      4 C20         2.2850    0.6620   -2.6840 c3        1 EF1     -0.111000
      5 C24         0.8340    0.2290   -2.5340 c3        1 EF1     -0.147000
      6 C25         0.1170    0.1880   -3.8680 c3        1 EF1     -0.168000
      7 C26        -1.3320   -0.2270   -3.7210 c3        1 EF1     -0.155000
      8 C27        -2.1980    0.8860   -3.1710 c3        1 EF1     -0.164000
      9 C28        -3.6590    0.4390   -3.1190 c3        1 EF1     -0.078000
     10 N29        -4.5360    1.4150   -2.5170 n3        1 EF1     -0.349000
     11 C17         3.0860    0.4520   -1.4080 c3        1 EF1     -0.974000
     12 P13         3.7420    1.8750   -0.9520 p5        1 EF1      2.735000
     13 O18         2.9650    2.4220    0.3270 oh        1 EF1     -0.813000
     14 O19         5.1800    2.0120   -0.7350 o         1 EF1     -1.138000
     15 C12         5.9050   -1.1680   -1.6110 c2        1 EF1     -0.679000
     16 C14         5.7650   -2.2970   -0.6560 c3        1 EF1     -0.017000
     17 C16         4.3250   -2.7800   -0.6490 c3        1 EF1     -0.205000
     18 C15         6.6800   -3.4600   -1.0090 c3        1 EF1     -0.205000
     19 N10         6.8440   -0.1270   -1.3640 n4        1 EF1      0.087000
     20 C9          8.3000   -0.4940   -1.4770 c2        1 EF1      0.168000
     21 O11         8.8280   -0.4630   -2.5900 o         1 EF1     -0.264000
     22 C8          8.9990   -0.8900   -0.2050 c3        1 EF1     -0.188000
     23 C7         10.3010   -1.6160   -0.4900 c3        1 EF1     -0.119000
     24 C1         11.0500   -1.8820    0.7680 ca        1 EF1     -0.081000
     25 C6         11.8050   -0.8650    1.3650 ca        1 EF1     -0.125000
     26 C2         11.0190   -3.1500    1.3580 ca        1 EF1     -0.125000
     27 C3         11.7310   -3.3970    2.5310 ca        1 EF1     -0.127000
     28 C4         12.4790   -2.3800    3.1230 ca        1 EF1     -0.127000
     29 C5         12.5150   -1.1140    2.5380 ca        1 EF1     -0.127000
     30 H2          2.7330    0.0760   -3.5400 hc        1 EF1      0.143000
     31 H3          0.3000    0.9240   -1.8350 hc        1 EF1      0.095500
     32 H4          0.8180   -0.7930   -2.0710 hc        1 EF1      0.095500
     33 H5          0.6380   -0.5440   -4.5410 hc        1 EF1      0.095000
     34 H6          0.1790    1.1960   -4.3590 hc        1 EF1      0.095000
     35 H7         -1.7210   -0.5320   -4.7300 hc        1 EF1      0.081000
     36 H8         -1.4040   -1.1260   -3.0540 hc        1 EF1      0.081000
     37 H9         -2.0990    1.7970   -3.8170 hc        1 EF1      0.089000
     38 H10        -1.8510    1.1670   -2.1420 hc        1 EF1      0.089000
     39 H11        -3.9750    0.1630   -4.1700 h1        1 EF1      0.063000
     40 H12        -3.7300   -0.5000   -2.4990 h1        1 EF1      0.063000
     41 H13        -5.4910    1.1470   -2.6440 hn        1 EF1      0.144500
     42 H15        -4.3920    2.3220   -2.9130 hn        1 EF1      0.144500
     43 H16         2.4410   -0.0230   -0.6240 hc        1 EF1      0.210000
     44 H17         3.9130   -0.3270   -1.5930 hc        1 EF1      0.210000
     45 H19         5.8050   -1.4280   -2.6740 hx        1 EF1      0.117000
     46 H20         6.0200   -1.9630    0.3930 hc        1 EF1      0.052000
     47 H21         3.6550   -2.0060   -0.2050 hc        1 EF1      0.063667
     48 H22         3.9800   -2.9910   -1.6900 hc        1 EF1      0.063667
     49 H23         4.2330   -3.7160   -0.0460 hc        1 EF1      0.063667
     50 H24         6.3920   -3.8900   -1.9980 hc        1 EF1      0.063667
     51 H25         7.7400   -3.1150   -1.0760 hc        1 EF1      0.063667
     52 H26         6.6140   -4.2660   -0.2390 hc        1 EF1      0.063667
     53 H27         6.6890    0.2500   -0.4230 hn        1 EF1      0.239500
     54 H28         9.2040    0.0480    0.3800 hc        1 EF1      0.123000
     55 H29         8.3260   -1.5420    0.4150 hc        1 EF1      0.123000
     56 H30        10.9280   -0.9950   -1.1860 hc        1 EF1      0.106500
     57 H31        10.0760   -2.5790   -1.0220 hc        1 EF1      0.106500
     58 H32        11.8390    0.1320    0.9020 ha        1 EF1      0.132500
     59 H33        10.4320   -3.9570    0.8930 ha        1 EF1      0.132500
     60 H34        11.7020   -4.3970    2.9890 ha        1 EF1      0.133000
     61 H35        13.0410   -2.5750    4.0480 ha        1 EF1      0.133000
     62 H36        13.1070   -0.3100    3.0010 ha        1 EF1      0.133000
     63 H293        3.4200    3.0660    0.8650 ho        1 EF1      0.286000
     64 H102        6.6650    0.6250   -2.0380 hn        1 EF1      0.239500
@<TRIPOS>BOND
     1    1    2 1   
     2    2    3 1   
     3    2    4 1   
     4    3   12 1   
     5    4    5 1   
     6    4   11 1   
     7    4   30 1   
     8    5    6 1   
     9    5   31 1   
    10    5   32 1   
    11    6    7 1   
    12    6   33 1   
    13    6   34 1   
    14    7    8 1   
    15    7   35 1   
    16    7   36 1   
    17    8    9 1   
    18    8   37 1   
    19    8   38 1   
    20    9   10 1   
    21    9   39 1   
    22    9   40 1   
    23   10   41 1   
    24   10   42 1   
    25   11   12 1   
    26   11   43 1   
    27   11   44 1   
    28   12   13 1   
    29   12   14 1   
    30   13   63 1   
    31   15   16 1   
    32   15   19 1   
    33   15   45 1   
    34   16   17 1   
    35   16   18 1   
    36   16   46 1   
    37   17   47 1   
    38   17   48 1   
    39   17   49 1   
    40   18   50 1   
    41   18   51 1   
    42   18   52 1   
    43   19   20 1   
    44   19   53 1   
    45   19   64 1   
    46   20   21 1   
    47   20   22 1   
    48   22   23 1   
    49   22   54 1   
    50   22   55 1   
    51   23   24 1   
    52   23   56 1   
    53   23   57 1   
    54   24   25 1   
    55   24   26 1   
    56   25   29 1   
    57   25   58 1   
    58   26   27 1   
    59   26   59 1   
    60   27   28 1   
    61   27   60 1   
    62   28   29 1   
    63   28   61 1   
    64   29   62 1   
@<TRIPOS>SUBSTRUCTURE
     1 EF1         1 TEMP              0 ****  ****    0 ROOT
