@<TRIPOS>MOLECULE
molecule
   63    63     1     0     0
SMALL
bcc


@<TRIPOS>ATOM
      1 O23          0.0000     0.0000     0.0000 o          1 EF1      -0.800800
      2 C21          1.2090     0.0000     0.0000 c          1 EF1       0.861600
      3 O22          1.8800     0.0000     1.1620 o          1 EF1      -0.800800
      4 C20          1.9620    -0.0070    -1.3050 c3         1 EF1      -0.132700
      5 C24          0.9670    -0.0130    -2.4690 c3         1 EF1      -0.046400
      6 C25          0.1740     1.2950    -2.4660 c3         1 EF1      -0.083400
      7 C26         -0.8210     1.2890    -3.6290 c3         1 EF1      -0.075400
      8 C27         -1.6150     2.5970    -3.6270 c3         1 EF1      -0.106400
      9 C28         -2.6100     2.5920    -4.7900 c3         1 EF1       0.074800
     10 N29         -3.3720     3.8480    -4.7880 nz         1 EF1      -0.811600
     11 C17          2.8410    -1.2570    -1.3800 c3         1 EF1      -0.235600
     12 P13          4.2900    -1.0480    -0.2950 p5         1 EF1       0.957400
     13 O18          3.8170    -1.0750     1.2440 o          1 EF1      -0.757000
     14 O19          4.9420     0.2490    -0.5860 o          1 EF1      -0.757000
     15 C12          5.4740    -2.4020    -0.5910 c3         1 EF1      -0.058500
     16 C14          4.8590    -3.7260    -0.1330 c3         1 EF1      -0.078700
     17 C16          3.7940    -4.1690    -1.1370 c3         1 EF1      -0.086600
     18 C15          5.9520    -4.7930    -0.0440 c3         1 EF1      -0.086600
     19 N10          6.7050    -2.1490     0.1620 ns         1 EF1      -0.517900
     20 C9           7.8120    -1.7260    -0.4800 c          1 EF1       0.658100
     21 O11          7.7890    -1.5560    -1.6820 o          1 EF1      -0.643100
     22 C8           9.0780    -1.4650     0.2930 c3         1 EF1      -0.153400
     23 C7          10.1760    -1.0000    -0.6660 c3         1 EF1      -0.024100
     24 C1          11.4430    -0.7390     0.1080 ca         1 EF1      -0.069300
     25 C6          11.6840     0.5160     0.6360 ca         1 EF1      -0.125500
     26 C2          12.3600    -1.7570     0.2950 ca         1 EF1      -0.125500
     27 C3          13.5210    -1.5170     1.0060 ca         1 EF1      -0.133500
     28 C4          13.7650    -0.2610     1.5280 ca         1 EF1      -0.147000
     29 C5          12.8440     0.7530     1.3490 ca         1 EF1      -0.133500
     30 H2           2.5860     0.8770    -1.3680 hc         1 EF1       0.067700
     31 H3           1.5060    -0.1070    -3.4040 hc         1 EF1       0.016700
     32 H4           0.2870    -0.8490    -2.3580 hc         1 EF1       0.016700
     33 H5           0.8540     2.1300    -2.5760 hc         1 EF1       0.068200
     34 H6          -0.3650     1.3880    -1.5310 hc         1 EF1       0.068200
     35 H7          -1.5020     0.4540    -3.5190 hc         1 EF1       0.039200
     36 H8          -0.2830     1.1950    -4.5650 hc         1 EF1       0.039200
     37 H9          -2.1540     2.6910    -2.6920 hc         1 EF1       0.061700
     38 H10         -0.9350     3.4330    -3.7370 hc         1 EF1       0.061700
     39 H11         -3.2900     1.7560    -4.6800 hx         1 EF1       0.096200
     40 H12         -2.0710     2.4980    -5.7260 hx         1 EF1       0.096200
     41 H13         -4.0230     3.8450    -5.5480 hn         1 EF1       0.424800
     42 H15         -2.7440     4.6200    -4.8890 hn         1 EF1       0.424800
     43 H16          3.1730    -1.4050    -2.4010 hc         1 EF1       0.025700
     44 H17          2.2700    -2.1200    -1.0580 hc         1 EF1       0.025700
     45 H19          5.7020    -2.4570    -1.6480 h1         1 EF1       0.073700
     46 H20          4.4040    -3.5940     0.8410 hc         1 EF1       0.085700
     47 H21          3.9160    -5.2240    -1.3510 hc         1 EF1       0.023533
     48 H22          3.9010    -3.6000    -2.0530 hc         1 EF1       0.023533
     49 H23          2.8090    -3.9970    -0.7190 hc         1 EF1       0.023533
     50 H24          6.5040    -4.8230    -0.9760 hc         1 EF1       0.023533
     51 H25          5.4990    -5.7600     0.1390 hc         1 EF1       0.023533
     52 H26          6.6280    -4.5510     0.7670 hc         1 EF1       0.023533
     53 H27          6.7110    -2.2450     1.1580 hn         1 EF1       0.317500
     54 H28          8.8960    -0.6970     1.0350 hc         1 EF1       0.055700
     55 H29          9.3930    -2.3760     0.7880 hc         1 EF1       0.055700
     56 H30         10.3570    -1.7680    -1.4070 hc         1 EF1       0.064700
     57 H31          9.8610    -0.0890    -1.1600 hc         1 EF1       0.064700
     58 H32         10.9620     1.3110     0.4950 ha         1 EF1       0.135500
     59 H33         12.1680    -2.7410    -0.1140 ha         1 EF1       0.135500
     60 H34         14.2410    -2.3130     1.1500 ha         1 EF1       0.118500
     61 H35         14.6740    -0.0740     2.0860 ha         1 EF1       0.115000
     62 H36         13.0350     1.7370     1.7610 ha         1 EF1       0.118500
     63 H293        -3.8700     3.9340    -3.9240 hn         1 EF1       0.424800
@<TRIPOS>BOND
     1     8     9 1
     2     8     7 1
     3     9    10 1
     4     7     6 1
     5     5     6 1
     6     5     4 1
     7    17    16 1
     8    11     4 1
     9    11    12 1
    10     4     2 1
    11    13    12 1
    12    16    18 1
    13    16    15 1
    14    12    15 1
    15    12    14 1
    16     2     1 1
    17     2     3 1
    18    29    28 ar
    19    29    25 ar
    20    28    27 ar
    21    15    19 1
    22    19    20 1
    23    25    24 ar
    24    27    26 ar
    25    20    22 1
    26    20    21 2
    27    24    26 ar
    28    24    23 1
    29    22    23 1
    30     4    30 1
    31     5    31 1
    32     5    32 1
    33     6    33 1
    34     6    34 1
    35     7    35 1
    36     7    36 1
    37     8    37 1
    38     8    38 1
    39     9    39 1
    40     9    40 1
    41    10    41 1
    42    10    42 1
    43    11    43 1
    44    11    44 1
    45    15    45 1
    46    16    46 1
    47    17    47 1
    48    17    48 1
    49    17    49 1
    50    18    50 1
    51    18    51 1
    52    18    52 1
    53    19    53 1
    54    22    54 1
    55    22    55 1
    56    23    56 1
    57    23    57 1
    58    25    58 1
    59    26    59 1
    60    27    60 1
    61    28    61 1
    62    29    62 1
    63    63    10 1
@<TRIPOS>SUBSTRUCTURE
     1 EF1         1 TEMP              0 ****  ****    0 ROOT
