@<TRIPOS>MOLECULE
EF2
   29    31     1     0     0
SMALL
bcc


@<TRIPOS>ATOM
      1 O01          0.0000     0.0000     0.0000 o          1 EF2      -0.631500
      2 C02          1.2120     0.0000     0.0000 c          1 EF2       0.603500
      3 N03          1.8700     0.0000     1.1690 ns         1 EF2      -0.136500
      4 C04          3.2090     0.0100     1.2450 c          1 EF2       0.606500
      5 O05          3.7430     0.0200     2.3330 o          1 EF2      -0.633500
      6 C06          4.0610     0.0110     0.0030 c3         1 EF2      -0.089400
      7 C07          3.2990     0.7030    -1.1310 c3         1 EF2      -0.058400
      8 C08          1.9500    -0.0060    -1.3120 c3         1 EF2      -0.037300
      9 N09          1.1580     0.7000    -2.3230 n          1 EF2      -0.111400
     10 C11         -1.2970     3.4820    -5.0940 ca         1 EF2      -0.087000
     11 C12         -0.6300     3.4900    -3.8790 ca         1 EF2      -0.016500
     12 C13         -0.0010     2.3380    -3.4350 ca         1 EF2      -0.166600
     13 C14         -0.0450     1.1670    -4.2190 ca         1 EF2      -0.166600
     14 C19         -0.7160     1.1750    -5.4300 ca         1 EF2      -0.016500
     15 C20         -1.3400     2.3340    -5.8640 ca         1 EF2      -0.087000
     16 C3           0.7100     0.1450    -3.4630 c          1 EF2       0.665100
     17 C4           0.7790     1.9880    -2.2290 c          1 EF2       0.665100
     18 H03          1.3400    -0.0080     2.0180 hn         1 EF2       0.199500
     19 H08          2.1180    -1.0290    -1.6260 h1         1 EF2       0.081700
     20 H061         4.9830     0.5460     0.1980 hc         1 EF2       0.049200
     21 H062         4.2840    -1.0100    -0.2820 hc         1 EF2       0.049200
     22 H071         3.8720     0.6350    -2.0480 hc         1 EF2       0.046700
     23 H072         3.1330     1.7420    -0.8750 hc         1 EF2       0.046700
     24 H11         -1.7880     4.3820    -5.4440 ha         1 EF2       0.110000
     25 H12         -0.5990     4.3920    -3.2800 ha         1 EF2       0.117500
     26 H20         -1.8640     2.3410    -6.8110 ha         1 EF2       0.110000
     27 H19         -0.7520     0.2790    -6.0370 ha         1 EF2       0.117500
     28 O16          1.0360     2.7370    -1.3070 o          1 EF2      -0.616000
     29 O18          0.8950    -1.0030    -3.8140 o          1 EF2      -0.616000
@<TRIPOS>BOND
     1     1     2 2   
     2     2     3 1   
     3     2     8 1   
     4     3     4 1   
     5     3    18 1   
     6     4     5 2   
     7     4     6 1   
     8     6     7 1   
     9     6    20 1   
    10     6    21 1   
    11     7     8 1   
    12     7    22 1   
    13     7    23 1   
    14     8     9 1   
    15     8    19 1   
    16     9    16 1   
    17     9    17 1   
    18    10    11 ar  
    19    10    15 ar  
    20    10    24 1   
    21    11    12 ar  
    22    11    25 1   
    23    12    13 ar  
    24    12    17 1   
    25    13    14 ar  
    26    13    16 1   
    27    14    15 ar  
    28    14    27 1   
    29    15    26 1   
    30    16    29 2   
    31    17    28 2   
@<TRIPOS>SUBSTRUCTURE
     1 EF2         1 TEMP              0 ****  ****    0 ROOT
