@<TRIPOS>MOLECULE
EF3
   60    63     1     0     0
SMALL
bcc


@<TRIPOS>ATOM
      1 C1           0.0000     0.0000     0.0000 ca         1 EF3      -0.032900
      2 C2           1.4100     0.0000     0.0000 ca         1 EF3      -0.243200
      3 N3           1.7900     0.0000     1.3230 na         1 EF3       0.308700
      4 C4           0.6510     0.0000     2.0670 cc         1 EF3       0.259700
      5 N5          -0.3930    -0.0000     1.2870 nd         1 EF3      -0.497100
      6 C6           1.9730     0.1040    -6.0960 ca         1 EF3      -0.257300
      7 C7           3.3580    -0.0010    -6.1360 ca         1 EF3       0.221100
      8 C8           4.0830    -0.1060    -4.9560 ca         1 EF3      -0.225000
      9 C9           3.4310    -0.1060    -3.7410 ca         1 EF3      -0.020000
     10 C10          2.0400    -0.0000    -3.6980 cp         1 EF3      -0.200500
     11 C11          1.3150     0.1040    -4.8850 ca         1 EF3       0.026000
     12 C12          1.3360    -0.0000    -2.3940 cp         1 EF3       0.452800
     13 C13          2.0780     0.0000    -1.2150 ca         1 EF3      -0.200300
     14 C14         -0.6760     0.0050    -1.2360 ca         1 EF3       0.355000
     15 N15          0.0090     0.0090    -2.3700 nb         1 EF3      -0.582000
     16 C16          3.1630    -0.0010     1.8340 c3         1 EF3       0.002600
     17 C18          5.4270    -0.1130    -7.2990 c3         1 EF3       0.206400
     18 C19          5.9720    -0.0970    -8.7280 c3         1 EF3      -0.046400
     19 C20          7.4980    -0.2160    -8.6940 c3         1 EF3       0.161800
     20 N21          8.0210    -0.2000   -10.0660 n3         1 EF3      -0.541600
     21 C22          1.1900     0.2230    -7.3780 c3         1 EF3       0.655200
     22 F23         -0.1750     0.3150    -7.0850 f          1 EF3      -0.207967
     23 F24          1.5970     1.3710    -8.0680 f          1 EF3      -0.207967
     24 F25          1.4210    -0.9050    -8.1730 f          1 EF3      -0.207967
     25 C26         -2.1510     0.0050    -1.2670 ce         1 EF3       0.331200
     26 N27         -2.7740     0.0110    -2.4000 n2         1 EF3      -0.615100
     27 C28          8.2760     1.0530   -12.1530 c3         1 EF3       0.155300
     28 N29          9.7040     0.7050   -12.1760 n3         1 EF3      -0.550600
     29 C30          9.9350    -0.5990   -11.5390 c3         1 EF3       0.155300
     30 C31          9.4490    -0.5480   -10.0890 c3         1 EF3       0.149300
     31 C32          7.7900     1.1030   -10.7040 c3         1 EF3       0.149300
     32 C33         10.2270     0.7210   -13.5490 c3         1 EF3       0.189100
     33 H4           0.6160     0.0000     3.1500 h5         1 EF3       0.031800
     34 H8           5.1620    -0.1880    -4.9900 ha         1 EF3       0.127000
     35 H9           3.9970    -0.1880    -2.8220 ha         1 EF3       0.107000
     36 H11          0.2350     0.1860    -4.8550 ha         1 EF3       0.141000
     37 H13          3.1450     0.1850    -1.2470 ha         1 EF3       0.118000
     38 H16          3.1460    -0.0530     2.9160 h1         1 EF3       0.023033
     39 H16A         3.6950    -0.8590     1.4400 h1         1 EF3       0.023033
     40 H16B         3.6640     0.9080     1.5240 h1         1 EF3       0.023033
     41 H18          5.8420     0.7200    -6.7450 h1         1 EF3       0.002700
     42 H18A         5.7060    -1.0420    -6.8170 h1         1 EF3       0.002700
     43 H19          5.5570    -0.9300    -9.2820 hc         1 EF3       0.037700
     44 H19A         5.6930     0.8320    -9.2100 hc         1 EF3       0.037700
     45 H20          7.9130     0.6180    -8.1400 h1         1 EF3       0.007700
     46 H20A         7.7770    -1.1450    -8.2110 h1         1 EF3       0.007700
     47 H26         -2.7120     0.0010    -0.3410 h4         1 EF3       0.005800
     48 HN27        -2.2560     0.0150    -3.2570 hn         1 EF3       0.329400
     49 H28          8.1340     2.0230   -12.6150 h1         1 EF3       0.014700
     50 H28A         7.7140     0.3030   -12.6960 h1         1 EF3       0.014700
     51 H30          9.3880    -1.3640   -12.0760 h1         1 EF3       0.014700
     52 H30A        10.9940    -0.8250   -11.5560 h1         1 EF3       0.014700
     53 H31          9.5910    -1.5180    -9.6280 h1         1 EF3       0.015950
     54 H31A        10.0110     0.2020    -9.5460 h1         1 EF3       0.015950
     55 H32          8.3370     1.8690   -10.1670 h1         1 EF3       0.015950
     56 H32A         6.7300     1.3300   -10.6870 h1         1 EF3       0.015950
     57 H33          9.7080    -0.0220   -14.1420 h1         1 EF3       0.000367
     58 H33A        11.2870     0.4940   -13.5340 h1         1 EF3       0.000367
     59 H33B        10.0740     1.7010   -13.9830 h1         1 EF3       0.000367
     60 O17          4.0030    -0.0020    -7.3310 os         1 EF3      -0.292900
@<TRIPOS>BOND
     1     1     2 ar  
     2     1     5 1   
     3     1    14 ar  
     4     2     3 1   
     5     2    13 ar  
     6     3     4 1   
     7     3    16 1   
     8     4     5 2   
     9     4    33 1   
    10     6     7 ar  
    11     6    11 ar  
    12     6    21 1   
    13     7     8 ar  
    14     7    60 1   
    15     8     9 ar  
    16     8    34 1   
    17     9    10 ar  
    18     9    35 1   
    19    10    11 ar  
    20    10    12 1   
    21    11    36 1   
    22    12    13 ar  
    23    12    15 ar  
    24    13    37 1   
    25    14    15 ar  
    26    14    25 1   
    27    16    38 1   
    28    16    39 1   
    29    16    40 1   
    30    17    18 1   
    31    17    41 1   
    32    17    42 1   
    33    17    60 1   
    34    18    19 1   
    35    18    43 1   
    36    18    44 1   
    37    19    20 1   
    38    19    45 1   
    39    19    46 1   
    40    20    30 1   
    41    20    31 1   
    42    21    22 1   
    43    21    23 1   
    44    21    24 1   
    45    25    26 2   
    46    25    47 1   
    47    26    48 1   
    48    27    28 1   
    49    27    31 1   
    50    27    49 1   
    51    27    50 1   
    52    28    29 1   
    53    28    32 1   
    54    29    30 1   
    55    29    51 1   
    56    29    52 1   
    57    30    53 1   
    58    30    54 1   
    59    31    55 1   
    60    31    56 1   
    61    32    57 1   
    62    32    58 1   
    63    32    59 1   
@<TRIPOS>SUBSTRUCTURE
     1 EF3         1 TEMP              0 ****  ****    0 ROOT
