@<TRIPOS>MOLECULE
EF5
   56    59     1     0     0
SMALL
bcc


@<TRIPOS>ATOM
      1 C1           0.0000     0.0000     0.0000 cc         1 EF5       0.463800
      2 C3           1.9120     0.0000     1.1550 cd         1 EF5       0.399300
      3 C11          5.7660    -1.2170     4.9040 ca         1 EF5      -0.115500
      4 C12          6.0640    -1.2240     6.2540 ca         1 EF5       0.008000
      5 C13          6.2170    -0.0300     6.9340 ca         1 EF5      -0.153500
      6 C14          6.0710     1.1710     6.2640 ca         1 EF5       0.008000
      7 C15          5.7730     1.1770     4.9140 ca         1 EF5      -0.115500
      8 C19         -1.9330     0.0060     1.5790 c          1 EF5       0.702300
      9 C20         -2.6770    -1.2700     1.6570 ca         1 EF5      -0.183600
     10 C22         -0.8110     0.0060    -1.2380 ca         1 EF5      -0.143500
     11 C23         -1.9450     0.8140    -1.3300 ca         1 EF5      -0.081500
     12 C24         -2.6970     0.8130    -2.4860 ca         1 EF5      -0.104500
     13 C25         -2.3300     0.0150    -3.5540 ca         1 EF5      -0.091000
     14 C26         -1.2050    -0.7880    -3.4710 ca         1 EF5      -0.104500
     15 C27         -0.4420    -0.7920    -2.3210 ca         1 EF5      -0.081500
     16 C28         -4.0610    -1.2630     1.8470 ca         1 EF5      -0.044500
     17 C29         -4.7500    -2.4560     1.9180 ca         1 EF5      -0.119000
     18 C30         -4.0730    -3.6580     1.8030 ca         1 EF5      -0.069000
     19 N2           1.3160     0.0000     0.0000 nc         1 EF5      -0.611000
     20 S4           0.7740    -0.0050     2.4290 ss         1 EF5      -0.159300
     21 C5          -0.5520     0.0010     1.2680 cd         1 EF5      -0.240000
     22 N6           3.2840    -0.0020     1.3290 ns         1 EF5      -0.054400
     23 C7           3.8060    -0.0080     2.5710 c          1 EF5       0.539100
     24 O8           3.0720    -0.0110     3.5370 o          1 EF5      -0.592100
     25 C9           5.3010    -0.0100     2.7620 c3         1 EF5      -0.036100
     26 C10          5.6200    -0.0170     4.2340 ca         1 EF5      -0.029300
     27 O17          7.2600    -1.2780     8.8600 o          1 EF5      -0.588800
     28 O18          7.2660     1.1960     8.8710 o          1 EF5      -0.588800
     29 O21         -2.5080     1.0600     1.7800 o          1 EF5      -0.551100
     30 C31         -2.7010    -3.6710     1.6140 ca         1 EF5      -0.119000
     31 C32         -2.0020    -2.4850     1.5360 ca         1 EF5      -0.044500
     32 C33          4.9790    -0.0370     9.4750 c3         1 EF5       0.005400
     33 C34          5.1760    -0.0430    10.9920 c3         1 EF5       0.037900
     34 H1           5.6460    -2.1530     4.3720 ha         1 EF5       0.108500
     35 H2           6.1780    -2.1640     6.7790 ha         1 EF5       0.123500
     36 H3           6.1910     2.1060     6.7970 ha         1 EF5       0.123500
     37 H4           5.6580     2.1180     4.3900 ha         1 EF5       0.108500
     38 H5          -2.2350     1.4390    -0.4940 ha         1 EF5       0.119500
     39 H6          -3.5780     1.4400    -2.5580 ha         1 EF5       0.104500
     40 H7          -2.9250     0.0180    -4.4590 ha         1 EF5       0.101000
     41 H8          -0.9210    -1.4090    -4.3110 ha         1 EF5       0.104500
     42 H9           0.4380    -1.4210    -2.2560 ha         1 EF5       0.119500
     43 H10         -4.5920    -0.3230     1.9370 ha         1 EF5       0.116000
     44 H11         -5.8230    -2.4530     2.0650 ha         1 EF5       0.106500
     45 H12         -4.6180    -4.5920     1.8610 ha         1 EF5       0.102000
     46 H13          3.8900     0.0050     0.5320 hn         1 EF5       0.179500
     47 H14          5.7250     0.8760     2.3050 hc         1 EF5       0.038200
     48 H15          5.7230    -0.8930     2.2960 hc         1 EF5       0.038200
     49 H16         -2.1770    -4.6140     1.5230 ha         1 EF5       0.106500
     50 H17         -0.9280    -2.4980     1.3880 ha         1 EF5       0.116000
     51 H18          4.4350    -0.9250     9.1780 h1         1 EF5       0.064700
     52 H19          4.4170     0.8440     9.1870 h1         1 EF5       0.064700
     53 H20          4.2100    -0.0550    11.4820 hc         1 EF5       0.012700
     54 H21          5.7210     0.8450    11.2890 hc         1 EF5       0.012700
     55 H22          5.7380    -0.9240    11.2800 hc         1 EF5       0.012700
     56 S16          6.5960    -0.0380     8.6550 sy         1 EF5       0.873300
@<TRIPOS>BOND
     1     1    10 1   
     2     1    19 1   
     3     1    21 2   
     4     2    19 2   
     5     2    20 1   
     6     2    22 1   
     7     3     4 ar  
     8     3    26 ar  
     9     3    34 1   
    10     4     5 ar  
    11     4    35 1   
    12     5     6 ar  
    13     5    56 1   
    14     6     7 ar  
    15     6    36 1   
    16     7    26 ar  
    17     7    37 1   
    18     8     9 1   
    19     8    21 1   
    20     8    29 2   
    21     9    16 ar  
    22     9    31 ar  
    23    10    11 ar  
    24    10    15 ar  
    25    11    12 ar  
    26    11    38 1   
    27    12    13 ar  
    28    12    39 1   
    29    13    14 ar  
    30    13    40 1   
    31    14    15 ar  
    32    14    41 1   
    33    15    42 1   
    34    16    17 ar  
    35    16    43 1   
    36    17    18 ar  
    37    17    44 1   
    38    18    30 ar  
    39    18    45 1   
    40    20    21 1   
    41    22    23 1   
    42    22    46 1   
    43    23    24 2   
    44    23    25 1   
    45    25    26 1   
    46    25    47 1   
    47    25    48 1   
    48    27    56 2   
    49    28    56 2   
    50    30    31 ar  
    51    30    49 1   
    52    31    50 1   
    53    32    33 1   
    54    32    51 1   
    55    32    52 1   
    56    32    56 1   
    57    33    53 1   
    58    33    54 1   
    59    33    55 1   
@<TRIPOS>SUBSTRUCTURE
     1 EF5         1 TEMP              0 ****  ****    0 ROOT
