@<TRIPOS>MOLECULE
EF8
   67    68     1     0     0
SMALL
bcc


@<TRIPOS>ATOM
      1 C4           0.0000     0.0000     0.0000 c3         1 EF8      -0.305000
      2 C5           1.5340     0.0000     0.0000 c3         1 EF8      -0.061000
      3 C6           2.0190     0.0000     1.4520 c3         1 EF8       0.087000
      4 C11          3.7550     2.4210    -1.9630 c3         1 EF8      -0.235000
      5 C7           1.3130    -1.0700     2.2320 c2         1 EF8      -0.184000
      6 C9           4.7390     1.5870     2.3560 c3         1 EF8      -0.124500
      7 C3          -0.4840    -1.3400     0.5580 c3         1 EF8      -0.020000
      8 N8           4.1380    -8.4010    12.1590 n2         1 EF8      -0.188000
      9 N7           3.3410    -7.6390    11.9430 n2         1 EF8       0.836000
     10 N6           2.5550    -6.8690    11.7130 n2         1 EF8      -0.216000
     11 C25          2.8050    -5.8490    10.6910 c3         1 EF8       0.033000
     12 C24          1.7540    -5.9680     9.5850 c3         1 EF8      -0.125000
     13 C23          2.0150    -4.9030     8.5170 c3         1 EF8      -0.097000
     14 C22          0.9640    -5.0230     7.4120 c3         1 EF8      -0.099000
     15 C21          1.2260    -3.9580     6.3430 c3         1 EF8      -0.133000
     16 C20          0.1750    -4.0770     5.2380 c3         1 EF8       0.167000
     17 OP3          0.4180    -3.0830     4.2410 os         1 EF8      -0.671000
     18 OP2         -1.9820    -2.4700     3.3600 o          1 EF8      -0.623000
     19 OP1         -0.5610    -4.2050     2.2030 o          1 EF8      -0.623000
     20 C2           0.2230    -1.6500     1.8450 c2         1 EF8      -0.462000
     21 N4          -0.4940     0.1720    -1.3720 nz         1 EF8       0.838000
     22 N5           2.0260     1.1960    -0.6880 n7         1 EF8      -0.119000
     23 O10          3.9410     0.1980    -1.1960 o          1 EF8      -0.336000
     24 O7           3.4260    -0.2430     1.4800 os         1 EF8      -0.230000
     25 C81          5.1390    -0.7630     3.1050 c3         1 EF8      -0.124500
     26 C82          4.4640    -2.0750     3.5080 c3         1 EF8      -0.123000
     27 C91          3.6630     2.6260     2.0310 c3         1 EF8      -0.123000
     28 H1          -0.3620     0.8060     0.6270 hx         1 EF8       0.133000
     29 H2           1.8960    -0.8890    -0.5020 h1         1 EF8       0.130000
     30 H3           1.8080     0.9640     1.8980 h1         1 EF8       0.062000
     31 H4           2.9910     2.8110    -2.6240 hc         1 EF8       0.077000
     32 H5           3.8730     1.4010    -2.3070 DU         1 EF8       0.232000
     33 H6           3.3510     2.6400    -0.9820 hc         1 EF8       0.077000
     34 H7           1.7420    -1.3760     3.1790 ha         1 EF8       0.142000
     35 H8           3.3450     0.3690     3.4470 h1         1 EF8       0.056000
     36 H9           5.3890     1.4600     1.4990 hc         1 EF8       0.065500
     37 H10          5.3220     1.9250     3.2040 hc         1 EF8       0.065500
     38 H11         -0.2760    -2.1230    -0.1610 hc         1 EF8       0.086500
     39 H12         -1.5510    -1.2870     0.7400 hc         1 EF8       0.086500
     40 H13          5.0030    -8.3760    11.6570 hn         1 EF8       0.249000
     41 H14          2.7460    -4.8650    11.1400 h1         1 EF8       0.082000
     42 H15          3.7920    -5.9950    10.2680 h1         1 EF8       0.082000
     43 H16          1.8130    -6.9520     9.1350 hc         1 EF8       0.078000
     44 H17          0.7670    -5.8230    10.0070 hc         1 EF8       0.078000
     45 H18          1.9560    -3.9190     8.9670 hc         1 EF8       0.058500
     46 H19          3.0020    -5.0490     8.0950 hc         1 EF8       0.058500
     47 H20         -0.0230    -4.8760     7.8340 hc         1 EF8       0.060000
     48 H21          1.0230    -6.0070     6.9630 hc         1 EF8       0.060000
     49 H22          2.2120    -4.1050     5.9210 hc         1 EF8       0.053000
     50 H23          1.1680    -2.9740     6.7930 hc         1 EF8       0.053000
     51 H24         -0.8120    -3.9300     5.6610 h1         1 EF8       0.029500
     52 H25          0.2320    -5.0610     4.7890 h1         1 EF8       0.029500
     53 H27          0.2000    -0.1460    -2.0190 hn         1 EF8       0.016000
     54 H28         -0.6870     1.1400    -1.5390 hn         1 EF8       0.016000
     55 H30          1.4440     2.0060    -0.7600 hn         1 EF8       0.087000
     56 H31          5.6940    -0.3680     3.9470 hc         1 EF8       0.065500
     57 H32          5.8170    -0.9450     2.2790 hc         1 EF8       0.065500
     58 H33          5.1990    -2.7380     3.9480 hc         1 EF8       0.043667
     59 H34          4.0330    -2.5430     2.6320 hc         1 EF8       0.043667
     60 H35          3.6830    -1.8720     4.2310 hc         1 EF8       0.043667
     61 H36          3.0580     2.8060     2.9110 hc         1 EF8       0.043667
     62 H37          4.1360     3.5500     1.7220 hc         1 EF8       0.043667
     63 H38          3.0350     2.2560     1.2290 hc         1 EF8       0.043667
     64 C8           4.0760     0.2420     2.6570 c3         1 EF8       0.060000
     65 C10          3.2490     1.1920    -1.2560 c3         1 EF8       0.160000
     66 P1          -0.4970    -2.9160     2.9270 p5         1 EF8       1.329000
     67 H43         -1.3330    -0.3600    -1.4940 hn         1 EF8       0.016000
@<TRIPOS>BOND
     1     1     2 1   
     2     1     7 1   
     3     1    21 1   
     4     1    28 1   
     5     2     3 1   
     6     2    22 1   
     7     2    29 1   
     8     3     5 1   
     9     3    24 1   
    10     3    30 1   
    11     4    31 1   
    12     4    32 1   
    13     4    33 1   
    14     4    65 1   
    15     5    20 1   
    16     5    34 1   
    17     6    27 1   
    18     6    36 1   
    19     6    37 1   
    20     6    64 1   
    21     7    20 1   
    22     7    38 1   
    23     7    39 1   
    24     8     9 1   
    25     8    40 1   
    26     9    10 1   
    27    10    11 1   
    28    11    12 1   
    29    11    41 1   
    30    11    42 1   
    31    12    13 1   
    32    12    43 1   
    33    12    44 1   
    34    13    14 1   
    35    13    45 1   
    36    13    46 1   
    37    14    15 1   
    38    14    47 1   
    39    14    48 1   
    40    15    16 1   
    41    15    49 1   
    42    15    50 1   
    43    16    17 1   
    44    16    51 1   
    45    16    52 1   
    46    17    66 1   
    47    18    66 1   
    48    19    66 1   
    49    20    66 1   
    50    21    53 1   
    51    21    54 1   
    52    21    67 1   
    53    22    55 1   
    54    22    65 1   
    55    23    65 1   
    56    24    64 1   
    57    25    26 1   
    58    25    56 1   
    59    25    57 1   
    60    25    64 1   
    61    26    58 1   
    62    26    59 1   
    63    26    60 1   
    64    27    61 1   
    65    27    62 1   
    66    27    63 1   
    67    32    65 1   
    68    35    64 1   
@<TRIPOS>SUBSTRUCTURE
     1 EF8         1 TEMP              0 ****  ****    0 ROOT
