@<TRIPOS>MOLECULE
molecule
   67    67     1     0     0
SMALL
bcc


@<TRIPOS>ATOM
      1 C4           0.0000     0.0000     0.0000 c3         1 EF8       0.079500
      2 C5           1.5340     0.0000     0.0000 c3         1 EF8       0.093700
      3 C6           2.0190     0.0000     1.4520 c3         1 EF8       0.167300
      4 C11          3.7550     2.4210    -1.9630 c3         1 EF8      -0.247100
      5 C7           1.3130    -1.0700     2.2320 c2         1 EF8      -0.166200
      6 C9           4.7390     1.5870     2.3560 c3         1 EF8      -0.095400
      7 C3          -0.4840    -1.3400     0.5580 c3         1 EF8      -0.021200
      8 N8           4.1150    -8.4170    12.1860 n2         1 EF8      -0.431400
      9 N7           3.3410    -7.6390    11.9430 n1         1 EF8       0.449000
     10 N6           2.5550    -6.8690    11.7130 n2         1 EF8      -0.236200
     11 C25          2.8050    -5.8490    10.6910 c3         1 EF8       0.205800
     12 C24          1.7540    -5.9680     9.5850 c3         1 EF8      -0.101400
     13 C23          2.0150    -4.9030     8.5170 c3         1 EF8      -0.075400
     14 C22          0.9640    -5.0230     7.4120 c3         1 EF8      -0.077400
     15 C21          1.2260    -3.9580     6.3430 c3         1 EF8      -0.091400
     16 C20          0.1750    -4.0770     5.2380 c3         1 EF8       0.230400
     17 OP3          0.4180    -3.0830     4.2410 os         1 EF8      -0.617200
     18 OP2         -1.9820    -2.4700     3.3600 o          1 EF8      -0.788500
     19 OP1         -0.5610    -4.2050     2.2030 o          1 EF8      -0.788500
     20 C2           0.2230    -1.6500     1.8450 c2         1 EF8      -0.213800
     21 N4          -0.4940     0.1720    -1.3720 nz         1 EF8      -0.806600
     22 N5           2.0260     1.1960    -0.6880 ns         1 EF8      -0.657900
     23 O10          3.9410     0.1980    -1.1960 o          1 EF8      -0.554100
     24 O7           3.4260    -0.2430     1.4800 os         1 EF8      -0.390600
     25 C81          5.1390    -0.7630     3.1050 c3         1 EF8      -0.095400
     26 C82          4.4640    -2.0750     3.5080 c3         1 EF8      -0.097100
     27 C91          3.6630     2.6260     2.0310 c3         1 EF8      -0.097100
     28 H1          -0.3620     0.8060     0.6270 hx         1 EF8       0.115700
     29 H2           1.8960    -0.8890    -0.5020 h1         1 EF8       0.116700
     30 H3           1.8080     0.9640     1.8980 h1         1 EF8       0.051700
     31 H4           2.9910     2.8110    -2.6240 hc         1 EF8       0.124033
     32 H5           3.8730     1.4010    -2.3070 hc         1 EF8       0.124033
     33 H6           3.3510     2.6400    -0.9820 hc         1 EF8       0.124033
     34 H7           1.7420    -1.3760     3.1790 ha         1 EF8       0.163000
     35 H8           3.3450     0.3690     3.4470 h1         1 EF8       0.039700
     36 H9           5.3220     1.9250     3.2040 hc         1 EF8       0.056450
     37 H10          5.3890     1.4600     1.4990 hc         1 EF8       0.056450
     38 H11         -0.2760    -2.1230    -0.1610 hc         1 EF8       0.087200
     39 H12         -1.5510    -1.2870     0.7400 hc         1 EF8       0.087200
     40 H13          4.9900    -8.4200    11.7020 hn         1 EF8       0.632400
     41 H14          2.7460    -4.8650    11.1400 h1         1 EF8       0.101200
     42 H15          3.7920    -5.9950    10.2680 h1         1 EF8       0.101200
     43 H16          1.8130    -6.9520     9.1350 hc         1 EF8       0.080200
     44 H17          0.7670    -5.8230    10.0070 hc         1 EF8       0.080200
     45 H18          1.9560    -3.9190     8.9670 hc         1 EF8       0.052700
     46 H19          3.0020    -5.0490     8.0950 hc         1 EF8       0.052700
     47 H20         -0.0230    -4.8760     7.8340 hc         1 EF8       0.054700
     48 H21          1.0230    -6.0070     6.9630 hc         1 EF8       0.054700
     49 H22          2.2120    -4.1050     5.9210 hc         1 EF8       0.047700
     50 H23          1.1680    -2.9740     6.7930 hc         1 EF8       0.047700
     51 H24          0.2320    -5.0610     4.7890 h1         1 EF8       0.040700
     52 H25         -0.8120    -3.9300     5.6610 h1         1 EF8       0.040700
     53 H27         -1.4390    -0.1530    -1.4300 hn         1 EF8       0.450133
     54 H28          0.0790    -0.3540    -2.0020 hn         1 EF8       0.450133
     55 H30          1.4430     2.0050    -0.7640 hn         1 EF8       0.299500
     56 H31          5.6940    -0.3680     3.9470 hc         1 EF8       0.056450
     57 H32          5.8170    -0.9450     2.2790 hc         1 EF8       0.056450
     58 H33          4.0310    -2.5420     2.6320 hc         1 EF8       0.035200
     59 H34          3.6850    -1.8720     4.2330 hc         1 EF8       0.035200
     60 H35          5.2000    -2.7390     3.9450 hc         1 EF8       0.035200
     61 H36          3.0580     2.8060     2.9110 hc         1 EF8       0.035200
     62 H37          3.0350     2.2560     1.2300 hc         1 EF8       0.035200
     63 H38          4.1360     3.5500     1.7220 hc         1 EF8       0.035200
     64 C8           4.0760     0.2420     2.6570 c3         1 EF8       0.141100
     65 C10          3.2490     1.1920    -1.2560 c          1 EF8       0.594100
     66 P1          -0.4970    -2.9160     2.9270 p5         1 EF8       1.182000
     67 H43         -0.4600     1.1410    -1.6200 hn         1 EF8       0.450133
@<TRIPOS>BOND
     1     4    65 1
     2     6    27 1
     3     6    64 1
     4    64    25 1
     5    64    24 1
     6    22    65 1
     7    22     2 1
     8    65    23 2
     9    25    26 1
    10     3     2 1
    11     3    24 1
    12     3     5 1
    13     1    21 1
    14     1     2 1
    15     1     7 1
    16     5    20 2
    17     7    20 1
    18    20    66 1
    19    19    66 1
    20    18    66 1
    21    66    17 1
    22    17    16 1
    23    16    15 1
    24    15    14 1
    25    14    13 1
    26    13    12 1
    27    12    11 1
    28    11    10 1
    29    10     9 2
    30     9     8 2
    31     1    28 1
    32     2    29 1
    33     3    30 1
    34     4    31 1
    35     4    32 1
    36     4    33 1
    37     5    34 1
    38    64    35 1
    39     6    36 1
    40     6    37 1
    41     7    38 1
    42     7    39 1
    43     8    40 1
    44    11    41 1
    45    11    42 1
    46    12    43 1
    47    12    44 1
    48    13    45 1
    49    13    46 1
    50    14    47 1
    51    14    48 1
    52    15    49 1
    53    15    50 1
    54    16    51 1
    55    16    52 1
    56    21    53 1
    57    21    54 1
    58    22    55 1
    59    25    56 1
    60    25    57 1
    61    26    58 1
    62    26    59 1
    63    26    60 1
    64    27    61 1
    65    27    62 1
    66    27    63 1
    67    67    21 1
@<TRIPOS>SUBSTRUCTURE
     1 EF8         1 TEMP              0 ****  ****    0 ROOT
