@<TRIPOS>MOLECULE
EFA
   33    35     1     0     0
SMALL
bcc


@<TRIPOS>ATOM
      1 N1           0.0000     0.0000     0.0000 nb         1 EFA      -0.722000
      2 C2           1.3300     0.0000     0.0000 ca         1 EFA       0.804000
      3 N3           2.0360     0.0000     1.1220 nb         1 EFA      -0.646000
      4 C4           1.4300     0.0020     2.3020 ca         1 EFA       0.275800
      5 C5           0.0240     0.0020     2.3500 ca         1 EFA      -0.246200
      6 C6          -0.6860     0.0020     1.1350 ca         1 EFA       0.590200
      7 N6          -2.0700     0.0030     1.1260 nv         1 EFA      -0.483500
      8 N7          -0.3300     0.0040     3.6580 nc         1 EFA      -0.495100
      9 C8           0.7420     0.0040     4.3970 cd         1 EFA       0.248700
     10 N9           1.8530     0.0030     3.6070 na         1 EFA       0.206000
     11 C1'          3.2430     0.0020     4.0680 c3         1 EFA       0.156800
     12 C2'          3.8030     1.4460     4.1190 c3         1 EFA       0.129100
     13 O2'          4.3280     1.8350     2.8480 oh         1 EFA      -0.532800
     14 C3'          4.9340     1.3210     5.1680 c3         1 EFA       0.131100
     15 O3'          6.1980     1.1560     4.5240 oh         1 EFA      -0.545800
     16 C4'          4.5670     0.0550     5.9670 c3         1 EFA       0.125100
     17 O4'          3.3240    -0.4380     5.4410 os         1 EFA      -0.389600
     18 C5'          4.4030     0.4030     7.4480 c3         1 EFA       0.209900
     19 F5'          4.1830    -0.7680     8.1820 f          1 EFA      -0.221300
     20 CAA          2.6070    -0.0080    -2.2710 c1         1 EFA      -0.078500
     21 CAF          2.0220    -0.0020    -1.2540 cg         1 EFA      -0.227000
     22 HN6         -2.5760     0.0040     1.9900 hn         1 EFA       0.276800
     23 HN6A        -2.5650     0.0020     0.2560 hn         1 EFA       0.276800
     24 H8           0.7490     0.0070     5.4800 h5         1 EFA       0.040800
     25 H1'          3.8620    -0.6210     3.4340 h2         1 EFA       0.074700
     26 H2'          3.0420     2.1400     4.4570 h1         1 EFA       0.021700
     27 HO2'         4.2290     2.7660     2.7380 ho         1 EFA       0.390000
     28 H3'          4.9430     2.1870     5.8190 h1         1 EFA       0.012700
     29 HO3'         6.8120     1.7810     4.8720 ho         1 EFA       0.391000
     30 H4'          5.3410    -0.6940     5.8430 h1         1 EFA       0.056700
     31 H5'          3.5580     1.0700     7.5710 h1         1 EFA       0.016200
     32 H5'A         5.3020     0.8900     7.8070 h1         1 EFA       0.016200
     33 HAA          2.7710    -0.0260    -3.3420 ha         1 EFA       0.136500
@<TRIPOS>BOND
     1     1     2 ar  
     2     1     6 ar  
     3     2     3 ar  
     4     2    21 1   
     5     3     4 ar  
     6     4     5 ar  
     7     4    10 1   
     8     5     6 ar  
     9     5     8 1   
    10     6     7 1   
    11     7    22 1   
    12     7    23 1   
    13     8     9 2   
    14     9    10 1   
    15     9    24 1   
    16    10    11 1   
    17    11    12 1   
    18    11    17 1   
    19    11    25 1   
    20    12    13 1   
    21    12    14 1   
    22    12    26 1   
    23    13    27 1   
    24    14    15 1   
    25    14    16 1   
    26    14    28 1   
    27    15    29 1   
    28    16    17 1   
    29    16    18 1   
    30    16    30 1   
    31    18    19 1   
    32    18    31 1   
    33    18    32 1   
    34    20    21 3   
    35    20    33 1   
@<TRIPOS>SUBSTRUCTURE
     1 EFA         1 TEMP              0 ****  ****    0 ROOT
