@<TRIPOS>MOLECULE
EFD
   77    81     1     0     0
SMALL
bcc


@<TRIPOS>ATOM
      1 C10          0.0000     0.0000     0.0000 c3         1 EFD       0.045000
      2 C11          2.1760     0.0000     1.2880 c3         1 EFD       0.138000
      3 C01          1.0390    -1.1160    -3.0870 ca         1 EFD      -0.037300
      4 C02          0.3630    -1.0520    -4.2870 ca         1 EFD      -0.126000
      5 C03          0.0740     0.1740    -4.8590 ca         1 EFD      -0.062000
      6 C04          0.4580     1.3450    -4.2330 ca         1 EFD      -0.152000
      7 C05          1.1360     1.2980    -3.0290 ca         1 EFD       0.155900
      8 C06          1.4320     0.0600    -2.4460 ca         1 EFD      -0.175600
      9 C07          2.1550    -0.0010    -1.1600 c          1 EFD       0.631700
     10 O08          3.3700    -0.0510    -1.1490 o          1 EFD      -0.616100
     11 N09          1.4690     0.0000     0.0000 n          1 EFD      -0.128800
     12 C12         -0.4930     1.1670     0.8610 c3         1 EFD      -0.057400
     13 C13          0.1360     1.0710     2.2520 c3         1 EFD      -0.013400
     14 C14          1.6580     1.1680     2.1330 c3         1 EFD      -0.147700
     15 C15          3.6560     0.1620     1.0540 ca         1 EFD      -0.147300
     16 C16          4.2800     1.3520     1.3820 ca         1 EFD      -0.025000
     17 C17          5.6370     1.5030     1.1700 ca         1 EFD      -0.197000
     18 C18          6.3730     0.4580     0.6270 ca         1 EFD       0.080600
     19 C19          5.7440    -0.7360     0.3000 ca         1 EFD      -0.197000
     20 C20          4.3880    -0.8820     0.5200 ca         1 EFD      -0.025000
     21 F22          1.5120     2.4420    -2.4180 f          1 EFD      -0.113900
     22 C23          2.0300     2.4710     1.4730 c          1 EFD       0.580100
     23 N24          7.7450     0.6080     0.4110 nu         1 EFD      -0.428600
     24 C25          8.5210    -0.4940    -0.1620 c3         1 EFD       0.134500
     25 C26          9.0210    -1.4280     0.9600 c3         1 EFD      -0.041400
     26 C27         10.4340    -1.8590     0.4950 c3         1 EFD      -0.023400
     27 C28         10.9910    -0.5660    -0.1500 c3         1 EFD      -0.023400
     28 C29          9.7740     0.0540    -0.8680 c3         1 EFD      -0.041400
     29 O30          2.1650     2.5230     0.2690 o          1 EFD      -0.609100
     30 N31          2.2110     3.5770     2.2200 ns         1 EFD      -0.048100
     31 C32          2.6430     4.7650     1.6180 ca         1 EFD      -0.099400
     32 C33          2.2150     5.9900     2.1130 ca         1 EFD      -0.083000
     33 C34          2.6430     7.1610     1.5170 ca         1 EFD      -0.198300
     34 C35          3.4960     7.1130     0.4290 ca         1 EFD      -0.038300
     35 C36          3.9230     5.8950    -0.0660 ca         1 EFD      -0.086000
     36 C37          3.5030     4.7210     0.5310 ca         1 EFD      -0.070000
     37 C38          3.9600     8.3920    -0.2190 c3         1 EFD       0.029200
     38 C39          2.1790     8.4910     2.0520 c3         1 EFD       0.645200
     39 F40          1.4890     9.1820     1.0500 f          1 EFD      -0.209633
     40 F41          1.3300     8.2830     3.1450 f          1 EFD      -0.209633
     41 F42          3.2880     9.2410     2.4580 f          1 EFD      -0.209633
     42 H1          -0.3620    -0.9330     0.4140 h1         1 EFD       0.026200
     43 H2          -0.3620     0.1190    -1.0140 h1         1 EFD       0.026200
     44 H3           1.9840    -0.9330     1.8050 h1         1 EFD       0.026700
     45 H4           0.0580    -1.9650    -4.7850 ha         1 EFD       0.111000
     46 H5          -0.4570     0.2170    -5.8030 ha         1 EFD       0.105000
     47 H6           0.2280     2.3010    -4.6870 ha         1 EFD       0.121000
     48 H7          -1.5720     1.1200     0.9490 hc         1 EFD       0.034200
     49 H8          -0.2040     2.1030     0.3980 hc         1 EFD       0.034200
     50 H9          -0.2290     1.8840     2.8690 hc         1 EFD       0.017700
     51 H10         -0.1300     0.1220     2.7030 hc         1 EFD       0.017700
     52 H11          2.1000     1.1200     3.1210 hc         1 EFD       0.045700
     53 H12          3.7050     2.1660     1.8060 ha         1 EFD       0.103500
     54 H13          6.1250     2.4350     1.4270 ha         1 EFD       0.108500
     55 H14          6.3160    -1.5540    -0.1220 ha         1 EFD       0.108500
     56 H15          3.8960    -1.8130     0.2650 ha         1 EFD       0.103500
     57 H16          2.4150    -2.6300    -2.4970 hc         1 EFD       0.014700
     58 H17          1.0110    -2.4580    -1.4340 hc         1 EFD       0.014700
     59 H18          0.8340    -3.2340    -3.0130 hc         1 EFD       0.014700
     60 H19          8.1950     1.4740     0.6330 hn         1 EFD       0.291800
     61 H20          7.9170    -1.0540    -0.8650 h1         1 EFD       0.045700
     62 H21          9.0810    -0.8910     1.8990 hc         1 EFD       0.021200
     63 H22          8.3740    -2.2910     1.0500 hc         1 EFD       0.021200
     64 H23         11.0410    -2.1550     1.3420 hc         1 EFD       0.014950
     65 H24         10.3690    -2.6550    -0.2370 hc         1 EFD       0.014950
     66 H25         11.3620     0.1070     0.6130 hc         1 EFD       0.014950
     67 H26         11.7690    -0.8060    -0.8650 hc         1 EFD       0.014950
     68 H27          9.8050     1.1330    -0.7820 hc         1 EFD       0.021200
     69 H28          9.7700    -0.2420    -1.9100 hc         1 EFD       0.021200
     70 H29          1.9330     3.5790     3.1820 hn         1 EFD       0.171500
     71 H30          1.5470     6.0280     2.9650 ha         1 EFD       0.120000
     72 H31          4.5920     5.8610    -0.9170 ha         1 EFD       0.117000
     73 H32          3.8380     3.7660     0.1430 ha         1 EFD       0.160000
     74 H33          4.6250     8.1590    -1.0420 hc         1 EFD       0.022033
     75 H34          4.4850     8.9960     0.5100 hc         1 EFD       0.022033
     76 H35          3.1030     8.9390    -0.5920 hc         1 EFD       0.022033
     77 C21          1.3460    -2.4540    -2.4640 c3         1 EFD       0.051200
@<TRIPOS>BOND
     1     1    11 1   
     2     1    12 1   
     3     1    42 1   
     4     1    43 1   
     5     2    11 1   
     6     2    14 1   
     7     2    15 1   
     8     2    44 1   
     9     3     4 ar  
    10     3     8 ar  
    11     3    77 1   
    12     4     5 ar  
    13     4    45 1   
    14     5     6 ar  
    15     5    46 1   
    16     6     7 ar  
    17     6    47 1   
    18     7     8 ar  
    19     7    21 1   
    20     8     9 1   
    21     9    10 2   
    22     9    11 1   
    23    12    13 1   
    24    12    48 1   
    25    12    49 1   
    26    13    14 1   
    27    13    50 1   
    28    13    51 1   
    29    14    22 1   
    30    14    52 1   
    31    15    16 ar  
    32    15    20 ar  
    33    16    17 ar  
    34    16    53 1   
    35    17    18 ar  
    36    17    54 1   
    37    18    19 ar  
    38    18    23 1   
    39    19    20 ar  
    40    19    55 1   
    41    20    56 1   
    42    22    29 2   
    43    22    30 1   
    44    23    24 1   
    45    23    60 1   
    46    24    25 1   
    47    24    28 1   
    48    24    61 1   
    49    25    26 1   
    50    25    62 1   
    51    25    63 1   
    52    26    27 1   
    53    26    64 1   
    54    26    65 1   
    55    27    28 1   
    56    27    66 1   
    57    27    67 1   
    58    28    68 1   
    59    28    69 1   
    60    30    31 1   
    61    30    70 1   
    62    31    32 ar  
    63    31    36 ar  
    64    32    33 ar  
    65    32    71 1   
    66    33    34 ar  
    67    33    38 1   
    68    34    35 ar  
    69    34    37 1   
    70    35    36 ar  
    71    35    72 1   
    72    36    73 1   
    73    37    74 1   
    74    37    75 1   
    75    37    76 1   
    76    38    39 1   
    77    38    40 1   
    78    38    41 1   
    79    57    77 1   
    80    58    77 1   
    81    59    77 1   
@<TRIPOS>SUBSTRUCTURE
     1 EFD         1 TEMP              0 ****  ****    0 ROOT
