@<TRIPOS>MOLECULE
molecule
   77    81     1     0     0
SMALL
bcc


@<TRIPOS>ATOM
      1 C10          0.0000     0.0000     0.0000 c3         1 EFD       0.106000
      2 C11          2.1760     0.0000     1.2880 c3         1 EFD       0.204000
      3 C01          1.0390    -1.1160    -3.0870 ca         1 EFD      -0.033300
      4 C02          0.3630    -1.0520    -4.2870 ca         1 EFD      -0.154000
      5 C03          0.0740     0.1740    -4.8590 ca         1 EFD      -0.090000
      6 C04          0.4580     1.3450    -4.2330 ca         1 EFD      -0.183000
      7 C05          1.1360     1.2980    -3.0290 ca         1 EFD       0.174900
      8 C06          1.4320     0.0600    -2.4460 ca         1 EFD      -0.177600
      9 C07          2.1550    -0.0010    -1.1600 c          1 EFD       0.698700
     10 O08          3.3700    -0.0510    -1.1490 o          1 EFD      -0.573100
     11 N09          1.4690     0.0000     0.0000 n          1 EFD      -0.471800
     12 C12         -0.4930     1.1670     0.8610 c3         1 EFD      -0.105400
     13 C13          0.1360     1.0710     2.2520 c3         1 EFD      -0.073400
     14 C14          1.6580     1.1680     2.1330 c3         1 EFD      -0.160700
     15 C15          3.6560     0.1620     1.0540 ca         1 EFD      -0.146300
     16 C16          4.2800     1.3520     1.3820 ca         1 EFD      -0.036500
     17 C17          5.6370     1.5030     1.1700 ca         1 EFD      -0.219500
     18 C18          6.3730     0.4580     0.6270 ca         1 EFD       0.218600
     19 C19          5.7440    -0.7360     0.3000 ca         1 EFD      -0.219500
     20 C20          4.3880    -0.8820     0.5200 ca         1 EFD      -0.036500
     21 F22          1.5120     2.4420    -2.4180 f          1 EFD      -0.112900
     22 C23          2.0300     2.4710     1.4730 c          1 EFD       0.670100
     23 N24          7.7450     0.6080     0.4110 nu         1 EFD      -0.824600
     24 C25          8.5210    -0.4940    -0.1620 c3         1 EFD       0.239500
     25 C26          9.0210    -1.4280     0.9600 c3         1 EFD      -0.098400
     26 C27         10.4340    -1.8590     0.4950 c3         1 EFD      -0.085900
     27 C28         10.9910    -0.5660    -0.1500 c3         1 EFD      -0.085900
     28 C29          9.7740     0.0540    -0.8680 c3         1 EFD      -0.098400
     29 O30          2.1650     2.5230     0.2690 o          1 EFD      -0.566100
     30 N31          2.2110     3.5770     2.2200 ns         1 EFD      -0.487100
     31 C32          2.6430     4.7650     1.6180 ca         1 EFD       0.047600
     32 C33          2.2150     5.9900     2.1130 ca         1 EFD      -0.123000
     33 C34          2.6430     7.1610     1.5170 ca         1 EFD      -0.168300
     34 C35          3.4960     7.1130     0.4290 ca         1 EFD      -0.051300
     35 C36          3.9230     5.8950    -0.0660 ca         1 EFD      -0.114000
     36 C37          3.5030     4.7210     0.5310 ca         1 EFD      -0.097000
     37 C38          3.9600     8.3920    -0.2190 c3         1 EFD      -0.065800
     38 C39          2.1790     8.4910     2.0520 c3         1 EFD       0.677200
     39 F40          1.4890     9.1820     1.0500 f          1 EFD      -0.225633
     40 F41          1.3300     8.2830     3.1450 f          1 EFD      -0.225633
     41 F42          3.2880     9.2410     2.4580 f          1 EFD      -0.225633
     42 H1          -0.3620    -0.9330     0.4140 h1         1 EFD       0.051700
     43 H2          -0.3620     0.1190    -1.0140 h1         1 EFD       0.051700
     44 H3           1.9840    -0.9330     1.8050 h1         1 EFD       0.056700
     45 H4           0.0580    -1.9650    -4.7850 ha         1 EFD       0.136000
     46 H5          -0.4570     0.2170    -5.8030 ha         1 EFD       0.135000
     47 H6           0.2280     2.3010    -4.6870 ha         1 EFD       0.147000
     48 H7          -1.5720     1.1200     0.9490 hc         1 EFD       0.061200
     49 H8          -0.2040     2.1030     0.3980 hc         1 EFD       0.061200
     50 H9          -0.2290     1.8840     2.8690 hc         1 EFD       0.047200
     51 H10         -0.1300     0.1220     2.7030 hc         1 EFD       0.047200
     52 H11          2.1000     1.1200     3.1210 hc         1 EFD       0.069700
     53 H12          3.7050     2.1660     1.8060 ha         1 EFD       0.124500
     54 H13          6.1250     2.4350     1.4270 ha         1 EFD       0.126000
     55 H14          6.3160    -1.5540    -0.1220 ha         1 EFD       0.126000
     56 H15          3.8960    -1.8130     0.2650 ha         1 EFD       0.124500
     57 H16          2.4150    -2.6300    -2.4970 hc         1 EFD       0.050033
     58 H17          1.0110    -2.4580    -1.4340 hc         1 EFD       0.050033
     59 H18          0.8340    -3.2340    -3.0130 hc         1 EFD       0.050033
     60 H19          8.1950     1.4740     0.6330 hn         1 EFD       0.434800
     61 H20          7.9170    -1.0540    -0.8650 h1         1 EFD       0.065700
     62 H21          9.0810    -0.8910     1.8990 hc         1 EFD       0.050700
     63 H22          8.3740    -2.2910     1.0500 hc         1 EFD       0.050700
     64 H23         11.0410    -2.1550     1.3420 hc         1 EFD       0.044700
     65 H24         10.3690    -2.6550    -0.2370 hc         1 EFD       0.044700
     66 H25         11.3620     0.1070     0.6130 hc         1 EFD       0.044700
     67 H26         11.7690    -0.8060    -0.8650 hc         1 EFD       0.044700
     68 H27          9.8050     1.1330    -0.7820 hc         1 EFD       0.050700
     69 H28          9.7700    -0.2420    -1.9100 hc         1 EFD       0.050700
     70 H29          1.9330     3.5790     3.1820 hn         1 EFD       0.323500
     71 H30          1.5470     6.0280     2.9650 ha         1 EFD       0.145000
     72 H31          4.5920     5.8610    -0.9170 ha         1 EFD       0.145000
     73 H32          3.8380     3.7660     0.1430 ha         1 EFD       0.180000
     74 H33          4.6250     8.1590    -1.0420 hc         1 EFD       0.054367
     75 H34          4.4850     8.9960     0.5100 hc         1 EFD       0.054367
     76 H35          3.1030     8.9390    -0.5920 hc         1 EFD       0.054367
     77 C21          1.3460    -2.4540    -2.4640 c3         1 EFD      -0.054800
@<TRIPOS>BOND
     1     4     5 ar
     2     4     3 ar
     3     5     6 ar
     4    77     3 1
     5     3     8 ar
     6     6     7 ar
     7     8     7 ar
     8     8     9 1
     9     7    21 1
    10    17    16 ar
    11    17    18 ar
    12     9    10 2
    13     9    11 1
    14     1    11 1
    15     1    12 1
    16    16    15 ar
    17    23    18 1
    18    23    24 1
    19    11     2 1
    20    18    19 ar
    21    25    24 1
    22    25    26 1
    23    12    13 1
    24    24    28 1
    25    15     2 1
    26    15    20 ar
    27    26    27 1
    28     2    14 1
    29    19    20 ar
    30    13    14 1
    31    28    27 1
    32    14    22 1
    33    22    30 1
    34    22    29 2
    35    30    31 1
    36    31    36 ar
    37    31    32 ar
    38    36    35 ar
    39    32    33 ar
    40    35    34 ar
    41    33    34 ar
    42    33    38 1
    43    41    38 1
    44    34    37 1
    45    38    40 1
    46    38    39 1
    47     1    42 1
    48     1    43 1
    49     2    44 1
    50     4    45 1
    51     5    46 1
    52     6    47 1
    53    12    48 1
    54    12    49 1
    55    13    50 1
    56    13    51 1
    57    14    52 1
    58    16    53 1
    59    17    54 1
    60    19    55 1
    61    20    56 1
    62    77    57 1
    63    77    58 1
    64    77    59 1
    65    23    60 1
    66    24    61 1
    67    25    62 1
    68    25    63 1
    69    26    64 1
    70    26    65 1
    71    27    66 1
    72    27    67 1
    73    28    68 1
    74    28    69 1
    75    30    70 1
    76    32    71 1
    77    35    72 1
    78    36    73 1
    79    37    74 1
    80    37    75 1
    81    37    76 1
@<TRIPOS>SUBSTRUCTURE
     1 EFD         1 TEMP              0 ****  ****    0 ROOT
