@<TRIPOS>MOLECULE
molecule
   37    40     1     0     0
SMALL
bcc


@<TRIPOS>ATOM
      1 O6           0.0000     0.0000     0.0000 o          1 EFG      -0.615500
      2 C6           1.2180     0.0000     0.0000 c          1 EFG       0.643000
      3 N1           1.9030     0.0000     1.1620 ns         1 EFG      -0.519400
      4 C2           3.2860     0.0000     1.1670 cc         1 EFG       0.548400
      5 N2           4.1440     0.0010     2.1660 nd         1 EFG      -0.740000
      6 C10          5.3940     0.0000     1.6800 cd         1 EFG       0.339200
      7 C9           5.3280    -0.0010     0.3360 cc         1 EFG      -0.284600
      8 N3           3.9940    -0.0010     0.0020 na         1 EFG      -0.080000
      9 C4           3.3480    -0.0010    -1.2180 cd         1 EFG      -0.130800
     10 C5           1.9620    -0.0070    -1.2620 cc         1 EFG       0.257800
     11 N7           1.5970    -0.0140    -2.5670 nc         1 EFG      -0.645000
     12 C8           2.6680    -0.0170    -3.3080 cd         1 EFG       0.483400
     13 N9           3.7740    -0.0010    -2.5110 na         1 EFG      -0.162900
     14 C1'          5.1670    -0.0020    -2.9640 c3         1 EFG       0.205800
     15 O4'          5.2610     0.5390    -4.3000 os         1 EFG      -0.351600
     16 C2'          5.6930    -1.4490    -3.0850 c3         1 EFG       0.089600
     17 F            4.6330    -2.3420    -3.2740 f          1 EFG      -0.234300
     18 C3'          6.6010    -1.4150    -4.3340 c3         1 EFG       0.080100
     19 O3'          7.9460    -1.7490    -3.9850 oh         1 EFG      -0.597800
     20 C4'          6.5170     0.0500    -4.8200 c3         1 EFG       0.125100
     21 C5'          6.5170     0.1040    -6.3490 c3         1 EFG       0.228400
     22 O5'          6.4810     1.4670    -6.7760 os         1 EFG      -0.559200
     23 P            6.4720     1.8990    -8.3280 p5         1 EFG       1.161900
     24 OP1          7.6320     1.2910    -9.0170 o          1 EFG      -0.898833
     25 OP2          5.1100     1.3890    -9.0190 o          1 EFG      -0.898833
     26 H1           1.4050    -0.0000     2.0300 hn         1 EFG       0.355500
     27 H9           6.3030     0.0040     2.2690 h4         1 EFG       0.040100
     28 H10          6.1660    -0.0020    -0.3510 h4         1 EFG       0.186000
     29 H8           2.6780    -0.0310    -4.3910 h5         1 EFG       0.117100
     30 H1'          5.7900     0.5680    -2.2850 h2         1 EFG       0.074700
     31 H2'          6.2700    -1.7150    -2.2070 h1         1 EFG       0.064700
     32 H3'          6.2220    -2.0870    -5.0950 h1         1 EFG       0.079700
     33 HO3'         8.1470    -2.6150    -4.3000 ho         1 EFG       0.402000
     34 H4'          7.3400     0.6270    -4.4160 h1         1 EFG       0.074700
     35 H5'          5.6470    -0.4170    -6.7290 h1         1 EFG       0.029700
     36 H5''         7.4150    -0.3700    -6.7270 h1         1 EFG       0.029700
     37 OP3          6.5600     3.5030    -8.4390 o          1 EFG      -0.898833
@<TRIPOS>BOND
     1     1     2 2
     2    25    23 1
     3     2    10 1
     4     2     3 1
     5    11    10 1
     6    11    12 2
     7    23    24 1
     8    23    22 1
     9    10     9 2
    10     3     4 1
    11    12    13 1
    12    22    21 1
    13    17    16 1
    14     9    13 1
    15     9     8 1
    16    13    14 1
    17     4     8 1
    18     4     5 2
    19     8     7 1
    20    21    20 1
    21     5     6 1
    22    16    14 1
    23    16    18 1
    24    14    15 1
    25     7     6 2
    26    18    20 1
    27    18    19 1
    28    15    20 1
    29     3    26 1
    30     6    27 1
    31     7    28 1
    32    12    29 1
    33    14    30 1
    34    16    31 1
    35    18    32 1
    36    19    33 1
    37    20    34 1
    38    21    35 1
    39    21    36 1
    40    23    37 1
@<TRIPOS>SUBSTRUCTURE
     1 EFG         1 TEMP              0 ****  ****    0 ROOT
