@<TRIPOS>MOLECULE
EFL
   43    45     1     0     0
SMALL
bcc


@<TRIPOS>ATOM
      1 CAZ          0.0000     0.0000     0.0000 c3         1 EFL       0.251700
      2 OAY          1.4290     0.0000     0.0000 os         1 EFL      -0.302900
      3 CAW          2.0460     0.0000     1.2110 ca         1 EFL       0.257100
      4 CAV          1.2960    -0.1100     2.3730 ca         1 EFL      -0.234000
      5 CAU          1.9250    -0.1100     3.6030 ca         1 EFL       0.017000
      6 CAT          3.3020     0.0000     3.6760 ca         1 EFL      -0.044900
      7 Br           4.1600     0.0020     5.3610 br         1 EFL      -0.113100
      8 CAS          4.0510     0.1100     2.5190 ca         1 EFL       0.065000
      9 CAR          3.4270     0.1050     1.2870 ca         1 EFL      -0.192500
     10 SAO          4.3840     0.2380    -0.1870 sy         1 EFL       1.049200
     11 OAP          3.7840     1.2650    -0.9630 o          1 EFL      -0.581300
     12 OAQ          5.7450     0.2640     0.2200 o          1 EFL      -0.581300
     13 NAN          4.1750    -1.1710    -1.0340 nu         1 EFL      -0.391500
     14 CAB          4.6070    -2.3840    -0.4900 ca         1 EFL       0.068600
     15 CAC          3.7790    -3.4990    -0.5360 ca         1 EFL      -0.138000
     16 CAD          4.2080    -4.6980     0.0020 ca         1 EFL       0.128100
     17 OAG          3.4110    -5.7990    -0.0340 os         1 EFL      -0.297900
     18 CAH          4.0650    -7.0630    -0.1600 c3         1 EFL       0.093800
     19 CAL          3.0710    -8.1850     0.1490 c3         1 EFL      -0.002100
     20 CAM          4.5870    -7.2260    -1.5890 c3         1 EFL      -0.002100
     21 CAI          5.2190    -7.1350     0.8060 c          1 EFL       0.574500
     22 OAK          5.5450    -8.2010     1.2870 o          1 EFL      -0.658500
     23 NAJ          5.8900    -6.0090     1.1340 ns         1 EFL      -0.013100
     24 CAE          5.4690    -4.7850     0.5900 ca         1 EFL      -0.175400
     25 CAF          6.2940    -3.6730     0.6330 ca         1 EFL      -0.077000
     26 CAA          5.8660    -2.4760     0.0900 ca         1 EFL      -0.151000
     27 H1          -0.3610     0.0590    -1.0200 h1         1 EFL       0.001700
     28 H2          -0.3610    -0.9130     0.4590 h1         1 EFL       0.001700
     29 H3          -0.3610     0.8540     0.5610 h1         1 EFL       0.001700
     30 H4           0.2170    -0.1960     2.3160 ha         1 EFL       0.130000
     31 H5           1.3390    -0.1960     4.5100 ha         1 EFL       0.114000
     32 H6           5.1300     0.1940     2.5790 ha         1 EFL       0.141000
     33 H7           3.7880    -1.1460    -1.9570 hn         1 EFL       0.349800
     34 H8           2.8310    -3.4480    -1.0600 ha         1 EFL       0.123000
     35 H9           2.7300    -8.0930     1.1730 hc         1 EFL       0.020533
     36 H10          3.5560    -9.1440     0.0150 hc         1 EFL       0.020533
     37 H11          2.2240    -8.1110    -0.5220 hc         1 EFL       0.020533
     38 H12          3.7950    -6.9940    -2.2910 hc         1 EFL       0.020533
     39 H13          4.9150    -8.2470    -1.7400 hc         1 EFL       0.020533
     40 H14          5.4200    -6.5520    -1.7490 hc         1 EFL       0.020533
     41 H15          6.5560    -6.0230     1.8810 hn         1 EFL       0.182500
     42 H16          7.2760    -3.7430     1.0850 ha         1 EFL       0.113000
     43 H17          6.5230    -1.6150     0.0920 ha         1 EFL       0.169000
@<TRIPOS>BOND
     1     1     2 1   
     2     1    27 1   
     3     1    28 1   
     4     1    29 1   
     5     2     3 1   
     6     3     4 ar  
     7     3     9 ar  
     8     4     5 ar  
     9     4    30 1   
    10     5     6 ar  
    11     5    31 1   
    12     6     7 1   
    13     6     8 ar  
    14     8     9 ar  
    15     8    32 1   
    16     9    10 1   
    17    10    11 2   
    18    10    12 2   
    19    10    13 1   
    20    13    14 1   
    21    13    33 1   
    22    14    15 ar  
    23    14    26 ar  
    24    15    16 ar  
    25    15    34 1   
    26    16    17 1   
    27    16    24 ar  
    28    17    18 1   
    29    18    19 1   
    30    18    20 1   
    31    18    21 1   
    32    19    35 1   
    33    19    36 1   
    34    19    37 1   
    35    20    38 1   
    36    20    39 1   
    37    20    40 1   
    38    21    22 2   
    39    21    23 1   
    40    23    24 1   
    41    23    41 1   
    42    24    25 ar  
    43    25    26 ar  
    44    25    42 1   
    45    26    43 1   
@<TRIPOS>SUBSTRUCTURE
     1 EFL         1 TEMP              0 ****  ****    0 ROOT
