@<TRIPOS>MOLECULE
molecule
   43    45     1     0     0
SMALL
bcc


@<TRIPOS>ATOM
      1 CAZ          0.0000     0.0000     0.0000 c3         1 EFL       0.130700
      2 OAY          1.4290     0.0000     0.0000 os         1 EFL      -0.323900
      3 CAW          2.0460     0.0000     1.2110 ca         1 EFL       0.247100
      4 CAV          1.2960    -0.1100     2.3730 ca         1 EFL      -0.239000
      5 CAU          1.9250    -0.1100     3.6030 ca         1 EFL      -0.011000
      6 CAT          3.3020     0.0000     3.6760 ca         1 EFL      -0.081900
      7 Br           4.1600     0.0020     5.3610 br         1 EFL      -0.084100
      8 CAS          4.0510     0.1100     2.5190 ca         1 EFL       0.033000
      9 CAR          3.4270     0.1050     1.2870 ca         1 EFL      -0.338500
     10 SAO          4.3840     0.2380    -0.1870 sy         1 EFL       1.438200
     11 OAP          3.7840     1.2650    -0.9630 o          1 EFL      -0.629300
     12 OAQ          5.7450     0.2640     0.2200 o          1 EFL      -0.629300
     13 NAN          4.1750    -1.1710    -1.0340 nu         1 EFL      -0.764500
     14 CAB          4.6070    -2.3840    -0.4900 ca         1 EFL       0.140600
     15 CAC          3.7790    -3.4990    -0.5360 ca         1 EFL      -0.142000
     16 CAD          4.2080    -4.6980     0.0020 ca         1 EFL       0.108100
     17 OAG          3.4110    -5.7990    -0.0340 os         1 EFL      -0.319900
     18 CAH          4.0650    -7.0630    -0.1600 c3         1 EFL       0.087800
     19 CAL          3.0710    -8.1850     0.1490 c3         1 EFL      -0.091600
     20 CAM          4.5870    -7.2260    -1.5890 c3         1 EFL      -0.091600
     21 CAI          5.2190    -7.1350     0.8060 c          1 EFL       0.677500
     22 OAK          5.5450    -8.2010     1.2870 o          1 EFL      -0.616500
     23 NAJ          5.8900    -6.0090     1.1340 ns         1 EFL      -0.461100
     24 CAE          5.4690    -4.7850     0.5900 ca         1 EFL      -0.013400
     25 CAF          6.2940    -3.6730     0.6330 ca         1 EFL      -0.119000
     26 CAA          5.8660    -2.4760     0.0900 ca         1 EFL      -0.156000
     27 H1          -0.3610     0.0590    -1.0200 h1         1 EFL       0.049367
     28 H2          -0.3610    -0.9130     0.4590 h1         1 EFL       0.049367
     29 H3          -0.3610     0.8540     0.5610 h1         1 EFL       0.049367
     30 H4           0.2170    -0.1960     2.3160 ha         1 EFL       0.147000
     31 H5           1.3390    -0.1960     4.5100 ha         1 EFL       0.149000
     32 H6           5.1300     0.1940     2.5790 ha         1 EFL       0.173000
     33 H7           3.7880    -1.1460    -1.9570 hn         1 EFL       0.467800
     34 H8           2.8310    -3.4480    -1.0600 ha         1 EFL       0.152000
     35 H9           2.7300    -8.0930     1.1730 hc         1 EFL       0.056700
     36 H10          3.5560    -9.1440     0.0150 hc         1 EFL       0.056700
     37 H11          2.2240    -8.1110    -0.5220 hc         1 EFL       0.056700
     38 H12          3.7950    -6.9940    -2.2910 hc         1 EFL       0.056700
     39 H13          4.9150    -8.2470    -1.7400 hc         1 EFL       0.056700
     40 H14          5.4200    -6.5520    -1.7490 hc         1 EFL       0.056700
     41 H15          6.5560    -6.0230     1.8810 hn         1 EFL       0.342500
     42 H16          7.2760    -3.7430     1.0850 ha         1 EFL       0.145000
     43 H17          6.5230    -1.6150     0.0920 ha         1 EFL       0.185000
@<TRIPOS>BOND
     1     5     4 ar
     2     5     6 ar
     3     4     3 ar
     4     1     2 1
     5     7     6 1
     6     6     8 ar
     7     3     2 1
     8     3     9 ar
     9     8     9 ar
    10     9    10 1
    11    12    10 2
    12    10    13 1
    13    10    11 2
    14    26    25 ar
    15    26    14 ar
    16    25    24 ar
    17    13    14 1
    18    14    15 ar
    19    24    23 1
    20    24    16 ar
    21    15    16 ar
    22    23    21 1
    23    16    17 1
    24    17    18 1
    25    21    22 2
    26    21    18 1
    27    18    19 1
    28    18    20 1
    29     1    27 1
    30     1    28 1
    31     1    29 1
    32     4    30 1
    33     5    31 1
    34     8    32 1
    35    13    33 1
    36    15    34 1
    37    19    35 1
    38    19    36 1
    39    19    37 1
    40    20    38 1
    41    20    39 1
    42    20    40 1
    43    23    41 1
    44    25    42 1
    45    26    43 1
@<TRIPOS>SUBSTRUCTURE
     1 EFL         1 TEMP              0 ****  ****    0 ROOT
