@<TRIPOS>MOLECULE
EFM
   47    49     1     0     0
SMALL
bcc


@<TRIPOS>ATOM
      1 CBA          0.0000     0.0000     0.0000 c3         1 EFM       0.248700
      2 OAK          1.4280     0.0000     0.0000 os         1 EFM      -0.307900
      3 CAB          2.0470     0.0000     1.2130 ca         1 EFM       0.116100
      4 CAA          1.2900    -0.0000     2.3750 ca         1 EFM      -0.183000
      5 CAF          1.9220    -0.0010     3.6090 ca         1 EFM      -0.144400
      6 NAJ          1.1710    -0.0020     4.7960 ns         1 EFM      -0.014100
      7 CAI          1.7840     0.3130     5.9580 c          1 EFM       0.577500
      8 OAZ          1.1640     0.2890     7.0000 o          1 EFM      -0.657500
      9 CAH          3.2430     0.6920     5.9540 c3         1 EFM       0.093800
     10 CAX          3.3760     2.2010     5.7370 c3         1 EFM      -0.003100
     11 CAY          3.8720     0.3150     7.2970 c3         1 EFM      -0.003100
     12 OAG          3.9190    -0.0010     4.9020 os         1 EFM      -0.292900
     13 CAE          3.3130    -0.0020     3.6820 ca         1 EFM       0.115100
     14 CAD          4.0680    -0.0020     2.5230 ca         1 EFM      -0.155000
     15 CAC          3.4360    -0.0060     1.2870 ca         1 EFM       0.073600
     16 NAL          4.2000    -0.0070     0.1100 nu         1 EFM      -0.374500
     17 SAM          5.6340    -0.8310     0.0550 sy         1 EFM       1.042200
     18 OAN          5.3890    -2.1040     0.6380 o          1 EFM      -0.572800
     19 OAO          6.1420    -0.6650    -1.2620 o          1 EFM      -0.572800
     20 CAP          6.7560     0.0010     1.1290 ca         1 EFM      -0.203500
     21 CAU          7.2530    -0.6450     2.2430 ca         1 EFM       0.059000
     22 CAT          8.1350     0.0070     3.0870 ca         1 EFM      -0.043900
     23 Br           8.8140    -0.8790     4.6120 br         1 EFM      -0.107100
     24 CAS          8.5190     1.3090     2.8160 ca         1 EFM       0.016000
     25 CAR          8.0250     1.9580     1.7010 ca         1 EFM      -0.235000
     26 CAQ          7.1460     1.3030     0.8520 ca         1 EFM       0.254100
     27 OAV          6.6610     1.9390    -0.2480 os         1 EFM      -0.300900
     28 CBB          7.1040     3.2790    -0.4690 c3         1 EFM       0.251700
     29 H1          -0.3610    -0.8930     0.4960 h1         1 EFM      -0.002300
     30 H2          -0.3610     0.8760     0.5250 h1         1 EFM      -0.002300
     31 H3          -0.3610     0.0170    -1.0210 h1         1 EFM      -0.002300
     32 H4           0.2110    -0.0760     2.3180 ha         1 EFM       0.128000
     33 H5           0.2510    -0.3940     4.8060 hn         1 EFM       0.180500
     34 H6           2.9960     2.7260     6.6040 hc         1 EFM       0.020367
     35 H7           2.8080     2.4910     4.8610 hc         1 EFM       0.020367
     36 H8           4.4200     2.4540     5.5900 hc         1 EFM       0.020367
     37 H9           4.9300     0.5480     7.2790 hc         1 EFM       0.020367
     38 H10          3.7390    -0.7460     7.4730 hc         1 EFM       0.020367
     39 H11          3.3920     0.8750     8.0910 hc         1 EFM       0.020367
     40 H12          5.1500    -0.0060     2.5790 ha         1 EFM       0.146000
     41 H13          3.8700     0.4780    -0.7010 hn         1 EFM       0.355800
     42 H14          6.9860    -1.6770     2.4350 ha         1 EFM       0.147000
     43 H15          9.2080     1.8190     3.4790 ha         1 EFM       0.114000
     44 H16          8.3280     2.9760     1.4880 ha         1 EFM       0.130000
     45 H17          6.8200     3.8980     0.3730 h1         1 EFM       0.001700
     46 H18          6.6470     3.6660    -1.3720 h1         1 EFM       0.001700
     47 H19          8.1820     3.2890    -0.5780 h1         1 EFM       0.001700
@<TRIPOS>BOND
     1     1     2 1   
     2     1    29 1   
     3     1    30 1   
     4     1    31 1   
     5     2     3 1   
     6     3     4 ar  
     7     3    15 ar  
     8     4     5 ar  
     9     4    32 1   
    10     5     6 1   
    11     5    13 ar  
    12     6     7 1   
    13     6    33 1   
    14     7     8 2   
    15     7     9 1   
    16     9    10 1   
    17     9    11 1   
    18     9    12 1   
    19    10    34 1   
    20    10    35 1   
    21    10    36 1   
    22    11    37 1   
    23    11    38 1   
    24    11    39 1   
    25    12    13 1   
    26    13    14 ar  
    27    14    15 ar  
    28    14    40 1   
    29    15    16 1   
    30    16    17 1   
    31    16    41 1   
    32    17    18 2   
    33    17    19 2   
    34    17    20 1   
    35    20    21 ar  
    36    20    26 ar  
    37    21    22 ar  
    38    21    42 1   
    39    22    23 1   
    40    22    24 ar  
    41    24    25 ar  
    42    24    43 1   
    43    25    26 ar  
    44    25    44 1   
    45    26    27 1   
    46    27    28 1   
    47    28    45 1   
    48    28    46 1   
    49    28    47 1   
@<TRIPOS>SUBSTRUCTURE
     1 EFM         1 TEMP              0 ****  ****    0 ROOT
