@<TRIPOS>MOLECULE
molecule
   47    49     1     0     0
SMALL
bcc


@<TRIPOS>ATOM
      1 CBA          0.0000     0.0000     0.0000 c3         1 EFM       0.129700
      2 OAK          1.4280     0.0000     0.0000 os         1 EFM      -0.326900
      3 CAB          2.0470     0.0000     1.2130 ca         1 EFM       0.119100
      4 CAA          1.2900    -0.0000     2.3750 ca         1 EFM      -0.207000
      5 CAF          1.9220    -0.0010     3.6090 ca         1 EFM       0.013600
      6 NAJ          1.1710    -0.0020     4.7960 ns         1 EFM      -0.461100
      7 CAI          1.7840     0.3130     5.9580 c          1 EFM       0.679500
      8 OAZ          1.1640     0.2890     7.0000 o          1 EFM      -0.615500
      9 CAH          3.2430     0.6920     5.9540 c3         1 EFM       0.087800
     10 CAX          3.3760     2.2010     5.7370 c3         1 EFM      -0.091600
     11 CAY          3.8720     0.3150     7.2970 c3         1 EFM      -0.091600
     12 OAG          3.9190    -0.0010     4.9020 os         1 EFM      -0.313900
     13 CAE          3.3130    -0.0020     3.6820 ca         1 EFM       0.098100
     14 CAD          4.0680    -0.0020     2.5230 ca         1 EFM      -0.150000
     15 CAC          3.4360    -0.0060     1.2870 ca         1 EFM       0.150600
     16 NAL          4.2000    -0.0070     0.1100 nu         1 EFM      -0.750500
     17 SAM          5.6340    -0.8310     0.0550 sy         1 EFM       1.432200
     18 OAN          5.3890    -2.1040     0.6380 o          1 EFM      -0.618300
     19 OAO          6.1420    -0.6650    -1.2620 o          1 EFM      -0.618300
     20 CAP          6.7560     0.0010     1.1290 ca         1 EFM      -0.349500
     21 CAU          7.2530    -0.6450     2.2430 ca         1 EFM       0.028000
     22 CAT          8.1350     0.0070     3.0870 ca         1 EFM      -0.079900
     23 Br           8.8140    -0.8790     4.6120 br         1 EFM      -0.080100
     24 CAS          8.5190     1.3090     2.8160 ca         1 EFM      -0.014000
     25 CAR          8.0250     1.9580     1.7010 ca         1 EFM      -0.239000
     26 CAQ          7.1460     1.3030     0.8520 ca         1 EFM       0.243100
     27 OAV          6.6610     1.9390    -0.2480 os         1 EFM      -0.321900
     28 CBB          7.1040     3.2790    -0.4690 c3         1 EFM       0.130700
     29 H1          -0.3610    -0.8930     0.4960 h1         1 EFM       0.043367
     30 H2          -0.3610     0.8760     0.5250 h1         1 EFM       0.043367
     31 H3          -0.3610     0.0170    -1.0210 h1         1 EFM       0.043367
     32 H4           0.2110    -0.0760     2.3180 ha         1 EFM       0.147000
     33 H5           0.2510    -0.3940     4.8060 hn         1 EFM       0.339500
     34 H6           2.9960     2.7260     6.6040 hc         1 EFM       0.056533
     35 H7           2.8080     2.4910     4.8610 hc         1 EFM       0.056533
     36 H8           4.4200     2.4540     5.5900 hc         1 EFM       0.056533
     37 H9           4.9300     0.5480     7.2790 hc         1 EFM       0.056533
     38 H10          3.7390    -0.7460     7.4730 hc         1 EFM       0.056533
     39 H11          3.3920     0.8750     8.0910 hc         1 EFM       0.056533
     40 H12          5.1500    -0.0060     2.5790 ha         1 EFM       0.165000
     41 H13          3.8700     0.4780    -0.7010 hn         1 EFM       0.475800
     42 H14          6.9860    -1.6770     2.4350 ha         1 EFM       0.179000
     43 H15          9.2080     1.8190     3.4790 ha         1 EFM       0.148000
     44 H16          8.3280     2.9760     1.4880 ha         1 EFM       0.147000
     45 H17          6.8200     3.8980     0.3730 h1         1 EFM       0.049033
     46 H18          6.6470     3.6660    -1.3720 h1         1 EFM       0.049033
     47 H19          8.1820     3.2890    -0.5780 h1         1 EFM       0.049033
@<TRIPOS>BOND
     1    10     9 1
     2    11     9 1
     3     9     7 1
     4     9    12 1
     5     8     7 2
     6     7     6 1
     7    12    13 1
     8    13    14 ar
     9    13     5 ar
    10    14    15 ar
    11     6     5 1
    12     5     4 ar
    13    18    17 2
    14    15    16 1
    15    15     3 ar
    16    16    17 1
    17     4     3 ar
    18     3     2 1
    19    17    19 2
    20    17    20 1
    21     2     1 1
    22    20    21 ar
    23    20    26 ar
    24    21    22 ar
    25    27    26 1
    26    27    28 1
    27    26    25 ar
    28    22    23 1
    29    22    24 ar
    30    25    24 ar
    31     1    29 1
    32     1    30 1
    33     1    31 1
    34     4    32 1
    35     6    33 1
    36    10    34 1
    37    10    35 1
    38    10    36 1
    39    11    37 1
    40    11    38 1
    41    11    39 1
    42    14    40 1
    43    16    41 1
    44    21    42 1
    45    24    43 1
    46    25    44 1
    47    28    45 1
    48    28    46 1
    49    28    47 1
@<TRIPOS>SUBSTRUCTURE
     1 EFM         1 TEMP              0 ****  ****    0 ROOT
