@<TRIPOS>MOLECULE
EFN
   44    46     1     0     0
SMALL
bcc


@<TRIPOS>ATOM
      1 CAZ          0.0000     0.0000     0.0000 c3         1 EFN       0.251700
      2 OAY          1.4290     0.0000     0.0000 os         1 EFN      -0.299900
      3 CAT          2.0460     0.0000     1.2110 ca         1 EFN       0.256100
      4 CAU          1.2910    -0.0060     2.3750 ca         1 EFN      -0.234000
      5 CAV          1.9200    -0.0060     3.6050 ca         1 EFN       0.016000
      6 CAW          3.3010    -0.0010     3.6760 ca         1 EFN      -0.042900
      7 Br           4.1590    -0.0010     5.3620 br         1 EFN      -0.107100
      8 CAX          4.0560     0.0050     2.5170 ca         1 EFN       0.058000
      9 CAS          3.4310     0.0000     1.2850 ca         1 EFN      -0.203500
     10 SAP          4.3920     0.0000    -0.1910 sy         1 EFN       1.042200
     11 OAQ          3.8690     1.0360    -1.0110 o          1 EFN      -0.573800
     12 OAR          5.7530    -0.0560     0.2160 o          1 EFN      -0.573800
     13 NAO          4.0810    -1.4230    -0.9790 nu         1 EFN      -0.372500
     14 CAC          4.5000    -2.6390    -0.4230 ca         1 EFN       0.085600
     15 CAD          4.5450    -2.7900     0.9560 ca         1 EFN      -0.173000
     16 CAE          4.9590    -3.9920     1.5050 ca         1 EFN       0.135100
     17 OAG          5.0080    -4.1560     2.8550 os         1 EFN      -0.292900
     18 CAH          4.7240    -5.4650     3.3550 c3         1 EFN       0.094800
     19 CAL          3.2240    -5.7430     3.2380 c3         1 EFN      -0.003100
     20 CAM          5.1460    -5.5530     4.8230 c3         1 EFN      -0.003100
     21 CAI          5.4870    -6.4890     2.5530 c          1 EFN       0.576500
     22 OAK          5.8650    -7.5150     3.0770 o          1 EFN      -0.656500
     23 NAJ          5.7480    -6.2590     1.2470 ns         1 EFN      -0.014100
     24 CAF          5.3300    -5.0470     0.6740 ca         1 EFN      -0.162400
     25 CAA          5.2840    -4.8960    -0.7030 ca         1 EFN      -0.138000
     26 CAB          4.8640    -3.6960    -1.2530 ca         1 EFN       0.091100
     27 OAN          4.8190    -3.5450    -2.6040 oh         1 EFN      -0.492100
     28 H1          -0.3610     0.8840     0.5120 h1         1 EFN       0.002033
     29 H2          -0.3610    -0.8850     0.5090 h1         1 EFN       0.002033
     30 H3          -0.3610     0.0020    -1.0210 h1         1 EFN       0.002033
     31 H4           0.2090    -0.0110     2.3200 ha         1 EFN       0.130000
     32 H5           1.3320    -0.0110     4.5150 ha         1 EFN       0.114000
     33 H6           5.1380     0.0070     2.5750 ha         1 EFN       0.147000
     34 H7           3.6260    -1.4120    -1.8710 hn         1 EFN       0.359800
     35 H8           4.3170    -1.9510     1.6010 ha         1 EFN       0.148000
     36 H9           2.9600    -5.8640     2.1940 hc         1 EFN       0.020533
     37 H10          2.6700    -4.9110     3.6560 hc         1 EFN       0.020533
     38 H11          2.9810    -6.6480     3.7800 hc         1 EFN       0.020533
     39 H12          4.9070    -6.5360     5.2100 hc         1 EFN       0.020533
     40 H13          6.2130    -5.3830     4.9030 hc         1 EFN       0.020533
     41 H14          4.6170    -4.8010     5.3960 hc         1 EFN       0.020533
     42 H15          6.3770    -6.8570     0.7490 hn         1 EFN       0.181500
     43 H16          5.5670    -5.7190    -1.3490 ha         1 EFN       0.118000
     44 H17          5.6660    -3.7380    -2.9710 ho         1 EFN       0.408000
@<TRIPOS>BOND
     1     1     2 1   
     2     1    28 1   
     3     1    29 1   
     4     1    30 1   
     5     2     3 1   
     6     3     4 ar  
     7     3     9 ar  
     8     4     5 ar  
     9     4    31 1   
    10     5     6 ar  
    11     5    32 1   
    12     6     7 1   
    13     6     8 ar  
    14     8     9 ar  
    15     8    33 1   
    16     9    10 1   
    17    10    11 2   
    18    10    12 2   
    19    10    13 1   
    20    13    14 1   
    21    13    34 1   
    22    14    15 ar  
    23    14    26 ar  
    24    15    16 ar  
    25    15    35 1   
    26    16    17 1   
    27    16    24 ar  
    28    17    18 1   
    29    18    19 1   
    30    18    20 1   
    31    18    21 1   
    32    19    36 1   
    33    19    37 1   
    34    19    38 1   
    35    20    39 1   
    36    20    40 1   
    37    20    41 1   
    38    21    22 2   
    39    21    23 1   
    40    23    24 1   
    41    23    42 1   
    42    24    25 ar  
    43    25    26 ar  
    44    25    43 1   
    45    26    27 1   
    46    27    44 1   
@<TRIPOS>SUBSTRUCTURE
     1 EFN         1 TEMP              0 ****  ****    0 ROOT
