@<TRIPOS>MOLECULE
molecule
   47    49     1     0     0
SMALL
bcc


@<TRIPOS>ATOM
      1 C1           0.0000     0.0000     0.0000 cy         1 EFP       0.016000
      2 N3          -0.5870    -1.3430     0.0190 na         1 EFP      -0.177900
      3 C4          -1.0290    -2.0230     1.1260 cc         1 EFP      -0.276600
      4 C6          -1.4910    -3.2160     0.6910 cd         1 EFP       0.418200
      5 N7          -2.0390    -4.2330     1.4900 ns         1 EFP      -0.525400
      6 C9          -2.1410    -4.0600     2.8240 c          1 EFP       0.656100
      7 C10         -2.7280    -5.1510     3.6820 c3         1 EFP      -0.098100
      8 C13         -2.7270    -4.7100     5.1230 ca         1 EFP      -0.112300
      9 C14         -1.6340    -4.9790     5.9260 ca         1 EFP      -0.073500
     10 C16         -1.6310    -4.5770     7.2480 ca         1 EFP      -0.187000
     11 C18         -2.7250    -3.9020     7.7700 ca         1 EFP       0.147100
     12 O19         -2.7240    -3.5060     9.0700 os         1 EFP      -0.327900
     13 C20         -3.8850    -2.8170     9.5370 c3         1 EFP       0.128700
     14 C24         -3.8210    -3.6340     6.9620 ca         1 EFP      -0.187000
     15 C26         -3.8170    -4.0340     5.6400 ca         1 EFP      -0.073500
     16 O28         -1.7580    -3.0270     3.3320 o          1 EFP      -0.597100
     17 N29         -1.3340    -3.2580    -0.6430 nd         1 EFP      -0.728000
     18 C30         -0.8000    -2.1390    -1.0500 cc         1 EFP       0.410400
     19 C32          1.5370     0.0000     0.0000 cy         1 EFP      -0.121900
     20 C35          1.4600     0.0000     1.5350 cy         1 EFP       0.102700
     21 N37          1.4090    -1.3430     2.1210 ns         1 EFP      -0.571900
     22 C39          1.7160    -1.5230     3.4210 c          1 EFP       0.666100
     23 C40          1.6630    -2.9030     4.0220 c3         1 EFP      -0.165100
     24 O44          2.0330    -0.5740     4.1060 o          1 EFP      -0.616100
     25 C45          0.0780     0.6600     1.3870 cy         1 EFP      -0.121900
     26 H1          -0.4180     0.6580    -0.7530 h1         1 EFP       0.076700
     27 H4          -1.1850    -1.6010     2.1120 h4         1 EFP       0.227000
     28 HN7         -2.3810    -5.0730     1.0670 hn         1 EFP       0.333500
     29 H10         -3.7450    -5.3510     3.3660 hc         1 EFP       0.067700
     30 H10A        -2.1340    -6.0510     3.5800 hc         1 EFP       0.067700
     31 H14         -0.7790    -5.5050     5.5190 ha         1 EFP       0.130500
     32 H16         -0.7740    -4.7880     7.8770 ha         1 EFP       0.140500
     33 H20         -4.0310    -1.9170     8.9520 h1         1 EFP       0.041700
     34 H20A        -3.7520    -2.5520    10.5800 h1         1 EFP       0.041700
     35 H20B        -4.7510    -3.4590     9.4350 h1         1 EFP       0.041700
     36 H24         -4.6760    -3.1060     7.3660 ha         1 EFP       0.140500
     37 H26         -4.6720    -3.8240     5.0090 ha         1 EFP       0.130500
     38 H30         -0.5590    -1.8920    -2.0770 h5         1 EFP       0.067100
     39 H32          1.9610     0.9120    -0.4030 hc         1 EFP       0.075950
     40 H32A         1.9610    -0.9120    -0.4030 hc         1 EFP       0.075950
     41 H35          2.1900     0.6570     1.9910 h1         1 EFP       0.092700
     42 HN37         1.2110    -2.1330     1.5400 hn         1 EFP       0.328500
     43 H40          2.5800    -3.0940     4.5680 hc         1 EFP       0.061367
     44 H40A         1.5530    -3.6370     3.2330 hc         1 EFP       0.061367
     45 H40B         0.8200    -2.9700     4.6990 hc         1 EFP       0.061367
     46 H45          0.1270     1.7410     1.3390 hc         1 EFP       0.075950
     47 H45A        -0.6550     0.2700     2.0830 hc         1 EFP       0.075950
@<TRIPOS>BOND
     1     2     1 1
     2    25     1 1
     3     1    19 1
     4     1    26 1
     5    18     2 1
     6     2     3 1
     7     4     3 2
     8     3    27 1
     9    17     4 1
    10     5     4 1
    11     5     6 1
    12     5    28 1
    13     7     6 1
    14     6    16 2
    15     8     7 1
    16     7    29 1
    17     7    30 1
    18     9     8 ar
    19     8    15 ar
    20    10     9 ar
    21     9    31 1
    22    10    11 ar
    23    10    32 1
    24    12    11 1
    25    11    14 ar
    26    13    12 1
    27    13    33 1
    28    13    34 1
    29    13    35 1
    30    14    15 ar
    31    14    36 1
    32    15    37 1
    33    17    18 2
    34    18    38 1
    35    20    19 1
    36    19    39 1
    37    19    40 1
    38    25    20 1
    39    20    21 1
    40    20    41 1
    41    21    22 1
    42    21    42 1
    43    22    23 1
    44    22    24 2
    45    23    43 1
    46    23    44 1
    47    23    45 1
    48    25    46 1
    49    25    47 1
@<TRIPOS>SUBSTRUCTURE
     1 EFP         1 TEMP              0 ****  ****    0 ROOT
