@<TRIPOS>MOLECULE
EFQ
   41    43     1     0     0
SMALL
bcc


@<TRIPOS>ATOM
      1 C1           0.0000     0.0000     0.0000 cy         1 EFQ      -0.091000
      2 N1          -0.5860     0.8630    -1.0290 na         1 EFQ       0.310100
      3 O1           2.4320     0.8420     2.1590 oh         1 EFQ      -0.567800
      4 C2          -1.4180     0.4680    -2.0460 cc         1 EFQ      -0.436600
      5 N2          -1.0910     2.6180    -2.1820 nd         1 EFQ      -0.640000
      6 O2          -2.9190    -0.5500    -3.8120 o          1 EFQ      -0.642100
      7 C3          -0.4140     2.1970    -1.1480 cc         1 EFQ       0.229400
      8 O3          -5.9070    -4.5900    -6.7840 os         1 EFQ      -0.309900
      9 C4           1.5380     0.0000     0.0000 cy         1 EFQ      -0.068900
     10 C5           0.0790     0.6590     1.3870 cy         1 EFQ      -0.068900
     11 C6          -1.7200     1.5780    -2.7550 cd         1 EFQ       0.256200
     12 C7           1.4590     0.0000     1.5360 cy         1 EFQ       0.171100
     13 C8          -3.1170     0.5110    -4.3660 c          1 EFQ       0.550100
     14 C9          -4.0010     0.5720    -5.5840 c3         1 EFQ      -0.029100
     15 C10         -4.5110    -0.8090    -5.9050 ca         1 EFQ      -0.113300
     16 C11         -5.6970    -1.2530    -5.3500 ca         1 EFQ      -0.042000
     17 C12         -3.7950    -1.6290    -6.7570 ca         1 EFQ      -0.042000
     18 C13         -6.1660    -2.5180    -5.6430 ca         1 EFQ      -0.174500
     19 C14         -4.2600    -2.8950    -7.0540 ca         1 EFQ      -0.174500
     20 C15         -5.4470    -3.3450    -6.4940 ca         1 EFQ       0.151100
     21 C16         -7.1360    -4.9870    -6.1720 c3         1 EFQ       0.244700
     22 H1          -0.4180    -0.9990     0.0350 h1         1 EFQ       0.069700
     23 HO1          2.8740     0.3620     2.8400 ho         1 EFQ       0.392000
     24 H2          -1.7640    -0.5400    -2.2430 h4         1 EFQ       0.207000
     25 H3           0.1900     2.8150    -0.4950 h5         1 EFQ       0.028100
     26 HN3         -2.7270     2.5140    -4.3340 hn         1 EFQ       0.165500
     27 H4           1.9620     0.9120    -0.4030 hc         1 EFQ       0.044200
     28 H4A          1.9620    -0.9120    -0.4030 hc         1 EFQ       0.044200
     29 H5          -0.6540     0.2700     2.0830 hc         1 EFQ       0.044200
     30 H5A          0.1280     1.7410     1.3400 hc         1 EFQ       0.044200
     31 H7           1.4030    -0.9990     1.9520 h1         1 EFQ       0.023700
     32 H9          -4.8390     1.2300    -5.3900 hc         1 EFQ       0.030200
     33 H9A         -3.4310     0.9510    -6.4250 hc         1 EFQ       0.030200
     34 H11         -6.2590    -0.6070    -4.6860 ha         1 EFQ       0.101500
     35 H12         -2.8680    -1.2770    -7.1940 ha         1 EFQ       0.101500
     36 H13         -7.0960    -2.8660    -5.2080 ha         1 EFQ       0.117000
     37 H14         -3.6970    -3.5360    -7.7210 ha         1 EFQ       0.117000
     38 H16         -7.9250    -4.3100    -6.4760 h1         1 EFQ      -0.003300
     39 H16A        -7.0280    -4.9560    -5.0950 h1         1 EFQ      -0.003300
     40 H16B        -7.3850    -5.9940    -6.4820 h1         1 EFQ      -0.003300
     41 N3          -2.5440     1.6350    -3.8920 ns         1 EFQ      -0.059400
@<TRIPOS>BOND
     1     1     2 1   
     2     1     9 1   
     3     1    10 1   
     4     1    22 1   
     5     2     4 1   
     6     2     7 1   
     7     3    12 1   
     8     3    23 1   
     9     4    11 2   
    10     4    24 1   
    11     5     7 2   
    12     5    11 1   
    13     6    13 2   
    14     7    25 1   
    15     8    20 1   
    16     8    21 1   
    17     9    12 1   
    18     9    27 1   
    19     9    28 1   
    20    10    12 1   
    21    10    29 1   
    22    10    30 1   
    23    11    41 1   
    24    12    31 1   
    25    13    14 1   
    26    13    41 1   
    27    14    15 1   
    28    14    32 1   
    29    14    33 1   
    30    15    16 ar  
    31    15    17 ar  
    32    16    18 ar  
    33    16    34 1   
    34    17    19 ar  
    35    17    35 1   
    36    18    20 ar  
    37    18    36 1   
    38    19    20 ar  
    39    19    37 1   
    40    21    38 1   
    41    21    39 1   
    42    21    40 1   
    43    26    41 1   
@<TRIPOS>SUBSTRUCTURE
     1 EFQ         1 TEMP              0 ****  ****    0 ROOT
