@<TRIPOS>MOLECULE
EFS
   12    11     1     0     0
SMALL
bcc


@<TRIPOS>ATOM
      1 C12         0.0140   -0.0030    0.0170 c3        1 EFS     -0.092100
      2 C11         1.5370   -0.0070    0.0200 c3        1 EFS      0.191400
      3 O2          2.0230   -0.0110    1.3080 os        1 EFS     -0.569200
      4 P           3.7610   -0.0160    1.2740 p5        1 EFS      1.313900
      5 O4          4.1030   -0.0210    2.7400 o         1 EFS     -0.939500
      6 O1          4.0520   -1.2870    0.5150 o         1 EFS     -0.939500
      7 O3          4.0590    1.2560    0.5210 o         1 EFS     -0.939500
      8 H121       -0.3720    0.9000    0.5450 hc        1 EFS     -0.010633
      9 H122       -0.3770    0.0010   -1.0300 hc        1 EFS     -0.010633
     10 H123       -0.3770   -0.9060    0.5420 hc        1 EFS     -0.010633
     11 H111        1.9130   -0.9180   -0.5310 h1        1 EFS      0.003200
     12 H112        1.9180    0.9050   -0.5260 h1        1 EFS      0.003200
@<TRIPOS>BOND
     1    1    2 1   
     2    1    8 1   
     3    1    9 1   
     4    1   10 1   
     5    2    3 1   
     6    2   11 1   
     7    2   12 1   
     8    3    4 1   
     9    4    5 1   
    10    4    6 1   
    11    4    7 1   
@<TRIPOS>SUBSTRUCTURE
     1 EFS         1 TEMP              0 ****  ****    0 ROOT
