@<TRIPOS>MOLECULE
molecule
   12    11     1     0     0
SMALL
bcc


@<TRIPOS>ATOM
      1 C12          0.0000     0.0000     0.0000 c3         1 EFS      -0.096100
      2 C11          1.5290     0.0000     0.0000 c3         1 EFS       0.157400
      3 O2           2.0070     0.0000     1.3460 os         1 EFS      -0.547200
      4 P            3.6130    -0.0000     1.2710 p5         1 EFS       1.163900
      5 O4           4.2210     0.0000     2.7610 o          1 EFS      -0.917500
      6 O1           4.1140    -1.3140     0.4870 o          1 EFS      -0.917500
      7 O3           4.0740     1.2080     0.5510 o          1 EFS      -0.917500
      8 H121        -0.3610     0.8850     0.5100 hc         1 EFS       0.002367
      9 H122        -0.3610    -0.8840     0.5110 hc         1 EFS       0.002367
     10 H123        -0.3610    -0.0010    -1.0210 hc         1 EFS       0.002367
     11 H111         1.8900     0.8840    -0.5110 h1         1 EFS       0.034200
     12 H112         1.8900    -0.8840    -0.5110 h1         1 EFS       0.034200
@<TRIPOS>BOND
     1     1     2 1
     2     1     8 1
     3     1     9 1
     4     1    10 1
     5     2     3 1
     6     2    11 1
     7     2    12 1
     8     3     4 1
     9     4     5 1
    10     4     6 1
    11     4     7 1
@<TRIPOS>SUBSTRUCTURE
     1 EFS         1 TEMP              0 ****  ****    0 ROOT
