@<TRIPOS>MOLECULE
EFT
   39    41     1     0     0
SMALL
bcc


@<TRIPOS>ATOM
      1 C1           0.0000     0.0000     0.0000 ca         1 EFT      -0.172000
      2 C2           1.3950     0.0000     0.0000 ca         1 EFT       0.171100
      3 C3           2.0970     0.0000     1.1890 ca         1 EFT      -0.165000
      4 C4          -0.6930     0.0000     1.1740 ca         1 EFT       0.000000
      5 N5           1.7950    -0.0000     3.7120 na         1 EFT       0.420900
      6 N6           0.6570    -0.0010     4.5260 nc         1 EFT      -0.612100
      7 C7          -0.4180     0.0010     3.7900 cd         1 EFT       0.375900
      8 C8          -0.0030     0.0000     2.3910 ca         1 EFT      -0.264900
      9 C9           1.4050     0.0000     2.3980 ca         1 EFT      -0.164200
     10 C10         -1.8390     0.0010     4.2950 c3         1 EFT       0.089100
     11 C11         -2.0790    -1.2490     5.1440 c3         1 EFT      -0.029400
     12 C12         -2.0680     1.2020     5.1140 c1         1 EFT       0.201700
     13 N13         -2.2270     2.1350     5.7430 n1         1 EFT      -0.382800
     14 O14          2.0690     0.0000    -1.1800 oh         1 EFT      -0.500100
     15 C15         -3.5520    -1.3130     5.5530 c3         1 EFT      -0.059700
     16 C16         -4.4190    -1.4990     4.3060 c3         1 EFT      -0.025400
     17 C17         -5.8920    -1.5630     4.7150 c3         1 EFT      -0.022900
     18 C18         -6.1070    -2.7420     5.6640 c3         1 EFT      -0.024400
     19 C19         -5.2390    -2.5580     6.9110 c3         1 EFT      -0.022900
     20 C20         -3.7670    -2.4930     6.5030 c3         1 EFT      -0.025400
     21 H1          -0.5370     0.0000    -0.9410 ha         1 EFT       0.119000
     22 H2           3.1800     0.0000     1.1820 ha         1 EFT       0.118000
     23 H3          -1.7760     0.0000     1.1650 ha         1 EFT       0.102000
     24 H4           2.7410    -0.0010     4.0370 hn         1 EFT       0.156700
     25 H5          -2.5210     0.0030     3.4530 hc         1 EFT       0.052700
     26 H6          -1.8250    -2.1310     4.5680 hc         1 EFT       0.034200
     27 H7          -1.4590    -1.2070     6.0320 hc         1 EFT       0.034200
     28 H8           2.2630    -0.8880    -1.4310 ho         1 EFT       0.406000
     29 H9          -3.8330    -0.3940     6.0520 hc         1 EFT       0.041700
     30 H10         -4.2680    -0.6620     3.6350 hc         1 EFT       0.015950
     31 H11         -4.1430    -2.4210     3.8090 hc         1 EFT       0.015950
     32 H12         -6.5050    -1.6960     3.8310 hc         1 EFT       0.015200
     33 H13         -6.1670    -0.6430     5.2160 hc         1 EFT       0.015200
     34 H14         -5.8270    -3.6620     5.1650 hc         1 EFT       0.013700
     35 H15         -7.1490    -2.7850     5.9550 hc         1 EFT       0.013700
     36 H16         -5.5150    -1.6360     7.4090 hc         1 EFT       0.015200
     37 H17         -5.3900    -3.3950     7.5820 hc         1 EFT       0.015200
     38 H18         -3.1540    -2.3590     7.3860 hc         1 EFT       0.015950
     39 H19         -3.4920    -3.4130     6.0020 hc         1 EFT       0.015950
@<TRIPOS>BOND
     1     1     2 ar  
     2     1     4 ar  
     3     1    21 1   
     4     2     3 ar  
     5     2    14 1   
     6     3     9 ar  
     7     3    22 1   
     8     4     8 ar  
     9     4    23 1   
    10     5     6 1   
    11     5     9 1   
    12     5    24 1   
    13     6     7 2   
    14     7     8 1   
    15     7    10 1   
    16     8     9 ar  
    17    10    11 1   
    18    10    12 1   
    19    10    25 1   
    20    11    15 1   
    21    11    26 1   
    22    11    27 1   
    23    12    13 3   
    24    14    28 1   
    25    15    16 1   
    26    15    20 1   
    27    15    29 1   
    28    16    17 1   
    29    16    30 1   
    30    16    31 1   
    31    17    18 1   
    32    17    32 1   
    33    17    33 1   
    34    18    19 1   
    35    18    34 1   
    36    18    35 1   
    37    19    20 1   
    38    19    36 1   
    39    19    37 1   
    40    20    38 1   
    41    20    39 1   
@<TRIPOS>SUBSTRUCTURE
     1 EFT         1 TEMP              0 ****  ****    0 ROOT
