@<TRIPOS>MOLECULE
molecule
   39    41     1     0     0
SMALL
bcc


@<TRIPOS>ATOM
      1 C1           0.0000     0.0000     0.0000 ca         1 EFT      -0.187000
      2 C2           1.3950     0.0000     0.0000 ca         1 EFT       0.152100
      3 C3           2.0970     0.0000     1.1890 ca         1 EFT      -0.189000
      4 C4          -0.6930     0.0000     1.1740 ca         1 EFT      -0.044000
      5 N5           1.7950    -0.0000     3.7120 na         1 EFT      -0.047100
      6 N6           0.6570    -0.0010     4.5260 nc         1 EFT      -0.482100
      7 C7          -0.4180     0.0010     3.7900 cd         1 EFT       0.366900
      8 C8          -0.0030     0.0000     2.3910 ca         1 EFT      -0.251900
      9 C9           1.4050     0.0000     2.3980 ca         1 EFT      -0.004200
     10 C10         -1.8390     0.0010     4.2950 c3         1 EFT       0.005100
     11 C11         -2.0790    -1.2490     5.1440 c3         1 EFT      -0.071400
     12 C12         -2.0680     1.2020     5.1140 c1         1 EFT       0.220700
     13 N13         -2.2270     2.1350     5.7430 n1         1 EFT      -0.362800
     14 O14          2.0690     0.0000    -1.1800 oh         1 EFT      -0.520100
     15 C15         -3.5520    -1.3130     5.5530 c3         1 EFT      -0.076700
     16 C16         -4.4190    -1.4990     4.3060 c3         1 EFT      -0.075400
     17 C17         -5.8920    -1.5630     4.7150 c3         1 EFT      -0.078900
     18 C18         -6.1070    -2.7420     5.6640 c3         1 EFT      -0.079400
     19 C19         -5.2390    -2.5580     6.9110 c3         1 EFT      -0.078900
     20 C20         -3.7670    -2.4930     6.5030 c3         1 EFT      -0.075400
     21 H1          -0.5370     0.0000    -0.9410 ha         1 EFT       0.145000
     22 H2           3.1800     0.0000     1.1820 ha         1 EFT       0.143000
     23 H3          -1.7760     0.0000     1.1650 ha         1 EFT       0.134000
     24 H4           2.7410    -0.0010     4.0370 hn         1 EFT       0.336700
     25 H5          -2.5210     0.0030     3.4530 hc         1 EFT       0.090700
     26 H6          -1.8250    -2.1310     4.5680 hc         1 EFT       0.062700
     27 H7          -1.4590    -1.2070     6.0320 hc         1 EFT       0.062700
     28 H8           2.2630    -0.8880    -1.4310 ho         1 EFT       0.423000
     29 H9          -3.8330    -0.3940     6.0520 hc         1 EFT       0.061700
     30 H10         -4.2680    -0.6620     3.6350 hc         1 EFT       0.041450
     31 H11         -4.1430    -2.4210     3.8090 hc         1 EFT       0.041450
     32 H12         -6.5050    -1.6960     3.8310 hc         1 EFT       0.043200
     33 H13         -6.1670    -0.6430     5.2160 hc         1 EFT       0.043200
     34 H14         -5.8270    -3.6620     5.1650 hc         1 EFT       0.041200
     35 H15         -7.1490    -2.7850     5.9550 hc         1 EFT       0.041200
     36 H16         -5.5150    -1.6360     7.4090 hc         1 EFT       0.043200
     37 H17         -5.3900    -3.3950     7.5820 hc         1 EFT       0.043200
     38 H18         -3.1540    -2.3590     7.3860 hc         1 EFT       0.041450
     39 H19         -3.4920    -3.4130     6.0020 hc         1 EFT       0.041450
@<TRIPOS>BOND
     1    17    16 1
     2    17    18 1
     3    16    15 1
     4    18    19 1
     5     1     4 ar
     6     1     2 ar
     7    14     2 1
     8     4     8 ar
     9     2     3 ar
    10    11    15 1
    11    11    10 1
    12    15    20 1
    13    19    20 1
    14     8     7 1
    15     8     9 ar
    16     3     9 ar
    17    12    13 3
    18    12    10 1
    19    10     7 1
    20     7     6 2
    21     9     5 1
    22     6     5 1
    23     1    21 1
    24     3    22 1
    25     4    23 1
    26     5    24 1
    27    10    25 1
    28    11    26 1
    29    11    27 1
    30    14    28 1
    31    15    29 1
    32    16    30 1
    33    16    31 1
    34    17    32 1
    35    17    33 1
    36    18    34 1
    37    18    35 1
    38    19    36 1
    39    19    37 1
    40    20    38 1
    41    20    39 1
@<TRIPOS>SUBSTRUCTURE
     1 EFT         1 TEMP              0 ****  ****    0 ROOT
