@<TRIPOS>MOLECULE
EFU
   52    55     1     0     0
SMALL
bcc


@<TRIPOS>ATOM
      1 C1           0.0000     0.0000     0.0000 ca         1 EFU      -0.219600
      2 C2           1.4080     0.0000     0.0000 ca         1 EFU       0.240100
      3 C3           2.1050     0.0000     1.1880 ca         1 EFU      -0.232000
      4 C4          -0.6960     0.0050     1.2030 ca         1 EFU       0.026000
      5 O5           2.0830    -0.0010    -1.1780 oh         1 EFU      -0.469100
      6 C6          -0.7370    -0.0000    -1.2770 c          1 EFU       0.629700
      7 N7          -1.7330    -0.8860    -1.4800 n          1 EFU      -0.153800
      8 O8          -0.4450     0.7980    -2.1470 o          1 EFU      -0.640100
      9 C9           0.0080     0.0060     2.4070 ca         1 EFU      -0.290900
     10 C10          1.4190    -0.0010     2.4000 ca         1 EFU      -0.134200
     11 N11          1.8180     0.0000     3.7100 na         1 EFU       0.412900
     12 N12          0.6890    -0.0000     4.5340 nc         1 EFU      -0.635100
     13 C13         -0.3940     0.0100     3.8120 cd         1 EFU       0.412900
     14 C14         -1.8090     0.0130     4.3320 c3         1 EFU       0.040600
     15 C15         -2.2730     1.4350     4.5150 ca         1 EFU      -0.091300
     16 C16         -2.9000     2.0970     3.4750 ca         1 EFU      -0.104000
     17 C17         -3.1260     4.0430     4.8500 ca         1 EFU      -0.102000
     18 C18         -2.5060     3.3800     5.8920 ca         1 EFU      -0.088300
     19 C19         -3.3260     3.4010     3.6420 ca         1 EFU      -0.094000
     20 C20         -2.0790     2.0750     5.7240 ca         1 EFU      -0.089000
     21 C21         -2.1490    -1.7800    -0.3980 c3         1 EFU       0.066300
     22 C22         -2.3990    -0.9510    -2.7830 c3         1 EFU       0.115300
     23 C23         -1.6810    -1.9410    -3.6650 ca         1 EFU      -0.126300
     24 C24         -0.6400    -1.5200    -4.4710 ca         1 EFU      -0.083500
     25 C25         -0.3630    -3.7550    -5.2820 ca         1 EFU      -0.097000
     26 C26         -1.4000    -4.1770    -4.4720 ca         1 EFU      -0.105000
     27 C27          0.0180    -2.4270    -5.2810 ca         1 EFU      -0.105000
     28 C28         -2.0590    -3.2700    -3.6630 ca         1 EFU      -0.083500
     29 C29         -2.2880     4.0800     7.2090 c3         1 EFU       0.064200
     30 H1           3.1890    -0.0000     1.1800 ha         1 EFU       0.117000
     31 H2          -1.7800     0.0050     1.2060 ha         1 EFU       0.115000
     32 H3           2.8080     0.5990    -1.1260 ho         1 EFU       0.408000
     33 H4           2.7670    -0.0060     4.0270 hn         1 EFU       0.153700
     34 H5          -1.8450    -0.5040     5.2830 hc         1 EFU       0.026200
     35 H6          -2.4550    -0.4900     3.6220 hc         1 EFU       0.026200
     36 H7          -3.0560     1.5930     2.5280 ha         1 EFU       0.102000
     37 H8          -3.4600     5.0650     4.9820 ha         1 EFU       0.106000
     38 H9          -3.8140     3.9200     2.8270 ha         1 EFU       0.103000
     39 H10         -1.5920     1.5540     6.5400 ha         1 EFU       0.114000
     40 H11         -2.6920    -2.6210    -0.8120 h1         1 EFU       0.012700
     41 H12         -2.7890    -1.2410     0.2900 h1         1 EFU       0.012700
     42 H13         -1.2740    -2.1400     0.1300 h1         1 EFU       0.012700
     43 H14         -3.4260    -1.2670    -2.6480 h1         1 EFU       0.034700
     44 H15         -2.3800     0.0270    -3.2480 h1         1 EFU       0.034700
     45 H16         -0.3410    -0.4790    -4.4700 ha         1 EFU       0.113500
     46 H17          0.1530    -4.4660    -5.9160 ha         1 EFU       0.100000
     47 H18         -1.6980    -5.2190    -4.4720 ha         1 EFU       0.102500
     48 H19          0.8330    -2.0960    -5.9140 ha         1 EFU       0.102500
     49 H20         -2.8720    -3.6010    -3.0280 ha         1 EFU       0.113500
     50 H21         -1.2630     3.9360     7.5290 hc         1 EFU       0.007367
     51 H22         -2.9600     3.6690     7.9520 hc         1 EFU       0.007367
     52 H23         -2.4840     5.1390     7.0910 hc         1 EFU       0.007367
@<TRIPOS>BOND
     1     1     2 ar  
     2     1     4 ar  
     3     1     6 1   
     4     2     3 ar  
     5     2     5 1   
     6     3    10 ar  
     7     3    30 1   
     8     4     9 ar  
     9     4    31 1   
    10     5    32 1   
    11     6     7 1   
    12     6     8 2   
    13     7    21 1   
    14     7    22 1   
    15     9    10 ar  
    16     9    13 1   
    17    10    11 1   
    18    11    12 1   
    19    11    33 1   
    20    12    13 2   
    21    13    14 1   
    22    14    15 1   
    23    14    34 1   
    24    14    35 1   
    25    15    16 ar  
    26    15    20 ar  
    27    16    19 ar  
    28    16    36 1   
    29    17    18 ar  
    30    17    19 ar  
    31    17    37 1   
    32    18    20 ar  
    33    18    29 1   
    34    19    38 1   
    35    20    39 1   
    36    21    40 1   
    37    21    41 1   
    38    21    42 1   
    39    22    23 1   
    40    22    43 1   
    41    22    44 1   
    42    23    24 ar  
    43    23    28 ar  
    44    24    27 ar  
    45    24    45 1   
    46    25    26 ar  
    47    25    27 ar  
    48    25    46 1   
    49    26    28 ar  
    50    26    47 1   
    51    27    48 1   
    52    28    49 1   
    53    29    50 1   
    54    29    51 1   
    55    29    52 1   
@<TRIPOS>SUBSTRUCTURE
     1 EFU         1 TEMP              0 ****  ****    0 ROOT
