@<TRIPOS>MOLECULE
molecule
   52    55     1     0     0
SMALL
bcc


@<TRIPOS>ATOM
      1 C1           0.0000     0.0000     0.0000 ca         1 EFU      -0.200600
      2 C2           1.4080     0.0000     0.0000 ca         1 EFU       0.217100
      3 C3           2.1050     0.0000     1.1880 ca         1 EFU      -0.253000
      4 C4          -0.6960     0.0050     1.2030 ca         1 EFU      -0.008000
      5 O5           2.0830    -0.0010    -1.1780 oh         1 EFU      -0.486100
      6 C6          -0.7370    -0.0000    -1.2770 c          1 EFU       0.693700
      7 N7          -1.7330    -0.8860    -1.4800 n          1 EFU      -0.488800
      8 O8          -0.4450     0.7980    -2.1470 o          1 EFU      -0.597100
      9 C9           0.0080     0.0060     2.4070 ca         1 EFU      -0.276900
     10 C10          1.4190    -0.0010     2.4000 ca         1 EFU       0.025800
     11 N11          1.8180     0.0000     3.7100 na         1 EFU      -0.051100
     12 N12          0.6890    -0.0000     4.5340 nc         1 EFU      -0.500100
     13 C13         -0.3940     0.0100     3.8120 cd         1 EFU       0.390900
     14 C14         -1.8090     0.0130     4.3320 c3         1 EFU      -0.030400
     15 C15         -2.2730     1.4350     4.5150 ca         1 EFU      -0.085300
     16 C16         -2.9000     2.0970     3.4750 ca         1 EFU      -0.124000
     17 C17         -3.1260     4.0430     4.8500 ca         1 EFU      -0.125000
     18 C18         -2.5060     3.3800     5.8920 ca         1 EFU      -0.081300
     19 C19         -3.3260     3.4010     3.6420 ca         1 EFU      -0.122000
     20 C20         -2.0790     2.0750     5.7240 ca         1 EFU      -0.113000
     21 C21         -2.1490    -1.7800    -0.3980 c3         1 EFU       0.092300
     22 C22         -2.3990    -0.9510    -2.7830 c3         1 EFU       0.159300
     23 C23         -1.6810    -1.9410    -3.6650 ca         1 EFU      -0.114300
     24 C24         -0.6400    -1.5200    -4.4710 ca         1 EFU      -0.109000
     25 C25         -0.3630    -3.7550    -5.2820 ca         1 EFU      -0.124000
     26 C26         -1.4000    -4.1770    -4.4720 ca         1 EFU      -0.132500
     27 C27          0.0180    -2.4270    -5.2810 ca         1 EFU      -0.132500
     28 C28         -2.0590    -3.2700    -3.6630 ca         1 EFU      -0.109000
     29 C29         -2.2880     4.0800     7.2090 c3         1 EFU      -0.047800
     30 H1           3.1890    -0.0000     1.1800 ha         1 EFU       0.139000
     31 H2          -1.7800     0.0050     1.2060 ha         1 EFU       0.143000
     32 H3           2.8080     0.5990    -1.1260 ho         1 EFU       0.428000
     33 H4           2.7670    -0.0060     4.0270 hn         1 EFU       0.333700
     34 H5          -1.8450    -0.5040     5.2830 hc         1 EFU       0.064700
     35 H6          -2.4550    -0.4900     3.6220 hc         1 EFU       0.064700
     36 H7          -3.0560     1.5930     2.5280 ha         1 EFU       0.126000
     37 H8          -3.4600     5.0650     4.9820 ha         1 EFU       0.130000
     38 H9          -3.8140     3.9200     2.8270 ha         1 EFU       0.131000
     39 H10         -1.5920     1.5540     6.5400 ha         1 EFU       0.137000
     40 H11         -2.6920    -2.6210    -0.8120 h1         1 EFU       0.039367
     41 H12         -2.7890    -1.2410     0.2900 h1         1 EFU       0.039367
     42 H13         -1.2740    -2.1400     0.1300 h1         1 EFU       0.039367
     43 H14         -3.4260    -1.2670    -2.6480 h1         1 EFU       0.064200
     44 H15         -2.3800     0.0270    -3.2480 h1         1 EFU       0.064200
     45 H16         -0.3410    -0.4790    -4.4700 ha         1 EFU       0.137000
     46 H17          0.1530    -4.4660    -5.9160 ha         1 EFU       0.127000
     47 H18         -1.6980    -5.2190    -4.4720 ha         1 EFU       0.129000
     48 H19          0.8330    -2.0960    -5.9140 ha         1 EFU       0.129000
     49 H20         -2.8720    -3.6010    -3.0280 ha         1 EFU       0.137000
     50 H21         -1.2630     3.9360     7.5290 hc         1 EFU       0.044033
     51 H22         -2.9600     3.6690     7.9520 hc         1 EFU       0.044033
     52 H23         -2.4840     5.1390     7.0910 hc         1 EFU       0.044033
@<TRIPOS>BOND
     1    12    11 1
     2    12    13 2
     3    11    10 1
     4    13    14 1
     5    13     9 1
     6    10     3 ar
     7    10     9 ar
     8    14    15 1
     9    27    24 ar
    10    27    25 ar
    11     3     2 ar
    12     9     4 ar
    13    24    23 ar
    14    25    26 ar
    15    20    15 ar
    16    20    18 ar
    17    15    16 ar
    18     2     5 1
    19     2     1 ar
    20     4     1 ar
    21    29    18 1
    22    18    17 ar
    23    23    22 1
    24    23    28 ar
    25    16    19 ar
    26     1     6 1
    27    26    28 ar
    28    22     7 1
    29    17    19 ar
    30     6     7 1
    31     6     8 2
    32     7    21 1
    33     3    30 1
    34     4    31 1
    35     5    32 1
    36    11    33 1
    37    14    34 1
    38    14    35 1
    39    16    36 1
    40    17    37 1
    41    19    38 1
    42    20    39 1
    43    21    40 1
    44    21    41 1
    45    21    42 1
    46    22    43 1
    47    22    44 1
    48    24    45 1
    49    25    46 1
    50    26    47 1
    51    27    48 1
    52    28    49 1
    53    29    50 1
    54    29    51 1
    55    29    52 1
@<TRIPOS>SUBSTRUCTURE
     1 EFU         1 TEMP              0 ****  ****    0 ROOT
