@<TRIPOS>MOLECULE
molecule
   44    47     1     0     0
SMALL
bcc


@<TRIPOS>ATOM
      1 C1           0.0000     0.0000     0.0000 c3         1 EFV      -0.108300
      2 C3           2.0470     0.0000     1.2120 ca         1 EFV      -0.064200
      3 C4           1.3010    -0.0070     2.3790 ca         1 EFV      -0.140000
      4 C5           1.9820    -0.0140     3.6030 cp         1 EFV      -0.315800
      5 C6           3.3760    -0.0120     3.6020 ca         1 EFV       0.440200
      6 C8           3.4390     0.0010     1.2950 ca         1 EFV       0.665600
      7 O2           1.4300     0.0000     0.0000 os         1 EFV      -0.269900
      8 N7           4.0490    -0.0060     2.4690 nb         1 EFV      -0.736000
      9 O9           4.1780     0.0070     0.1570 os         1 EFV      -0.415100
     10 C10          5.5990     0.0080     0.3060 c3         1 EFV       0.083700
     11 C11          1.2320    -0.0210     4.8790 cp         1 EFV       0.503800
     12 C12          1.9280    -0.0280     6.0880 ca         1 EFV      -0.253300
     13 C13          1.2230    -0.0340     7.2750 ca         1 EFV       0.000000
     14 C14         -0.1760    -0.0330     7.2170 ca         1 EFV      -0.297900
     15 C15         -0.8030    -0.0270     5.9670 ca         1 EFV       0.488600
     16 N16         -0.0980    -0.0160     4.8600 nb         1 EFV      -0.695000
     17 C17         -2.2880    -0.0290     6.2390 c3         1 EFV       0.025700
     18 N18         -2.4380    -0.0370     7.6990 n          1 EFV      -0.386000
     19 C19         -1.2160    -0.0390     8.2590 c          1 EFV       0.707100
     20 O20         -1.0000    -0.0460     9.4560 o          1 EFV      -0.629500
     21 C21         -3.6590    -0.0410     8.3970 cc         1 EFV      -0.138700
     22 C22         -4.9390    -0.0450     7.8230 cc         1 EFV       0.321200
     23 N23         -5.8230    -0.0480     8.7870 nd         1 EFV      -0.480800
     24 N24         -5.1420    -0.0470    10.0110 na         1 EFV       0.017400
     25 C25         -3.8090    -0.0490     9.7470 cd         1 EFV      -0.096300
     26 C26         -5.7560    -0.0490    11.3410 c3         1 EFV       0.155400
     27 C27         -6.6890     1.0840    11.4520 c1         1 EFV       0.205700
     28 N28         -7.4050     1.9590    11.5570 n1         1 EFV      -0.322800
     29 H1          -0.6800    -0.8320     0.1340 h1         1 EFV       0.120367
     30 H2           0.3780    -0.5220    -0.8710 h1         1 EFV       0.120367
     31 H3           0.3800    -0.3680     0.9460 h1         1 EFV       0.120367
     32 H4           0.2370    -0.1660     2.5100 ha         1 EFV       0.192000
     33 H5           3.6020     0.0710     4.6580 h4         1 EFV       0.045100
     34 H6           5.9120     0.1530     1.3330 h1         1 EFV       0.067367
     35 H7           6.0090     0.2130    -0.6760 h1         1 EFV       0.067367
     36 H8           5.8330    -1.0050     0.6130 h1         1 EFV       0.067367
     37 H9           2.9570    -0.0840     5.7540 ha         1 EFV       0.162000
     38 H10          1.4670    -0.2950     8.2970 ha         1 EFV       0.172000
     39 H11         -2.7520    -1.0070     6.2060 h1         1 EFV       0.084200
     40 H12         -3.2340     0.4890     6.1420 h1         1 EFV       0.084200
     41 H13         -4.9970     0.0550     6.7460 h4         1 EFV       0.053100
     42 H14         -3.2620    -0.1150    10.6800 h4         1 EFV       0.189000
     43 H15         -4.9270    -0.1610    12.0290 h1         1 EFV       0.095200
     44 H16         -6.3010    -0.9800    11.2430 h1         1 EFV       0.095200
@<TRIPOS>BOND
     1     1     7 1
     2     7     2 1
     3     9    10 1
     4     9     6 1
     5     2     6 ar
     6     2     3 ar
     7     6     8 ar
     8     3     4 ar
     9     8     5 ar
    10     4     5 ar
    11     4    11 1
    12    28    27 3
    13    16    15 ar
    14    16    11 ar
    15    17    15 1
    16    17    18 1
    17    22    23 2
    18    22    21 1
    19    15    14 ar
    20    11    12 ar
    21    23    24 1
    22    27    26 1
    23    21    18 1
    24    21    25 2
    25    18    19 1
    26    24    25 1
    27    24    26 1
    28    12    13 ar
    29    14    19 1
    30    14    13 ar
    31    19    20 2
    32     1    29 1
    33     1    30 1
    34     1    31 1
    35     3    32 1
    36     5    33 1
    37    10    34 1
    38    10    35 1
    39    10    36 1
    40    12    37 1
    41    13    38 1
    42    17    39 1
    43    17    40 1
    44    22    41 1
    45    25    42 1
    46    26    43 1
    47    26    44 1
@<TRIPOS>SUBSTRUCTURE
     1 EFV         1 TEMP              0 ****  ****    0 ROOT
