@<TRIPOS>MOLECULE
EFV
   44    47     1     0     0
SMALL
bcc


@<TRIPOS>ATOM
      1 C1           0.0000     0.0000     0.0000 c3         1 EFV      -0.085300
      2 C3           2.0470     0.0000     1.2120 ca         1 EFV      -0.048200
      3 C4           1.3010    -0.0070     2.3790 ca         1 EFV      -0.129000
      4 C5           1.9820    -0.0140     3.6030 cp         1 EFV      -0.317800
      5 C6           3.3760    -0.0120     3.6020 ca         1 EFV       0.405200
      6 C8           3.4390     0.0010     1.2950 ca         1 EFV       0.613600
      7 O2           1.4300     0.0000     0.0000 os         1 EFV      -0.242900
      8 N7           4.0490    -0.0060     2.4690 nb         1 EFV      -0.605000
      9 O9           4.1780     0.0070     0.1570 os         1 EFV      -0.406100
     10 C10          5.5990     0.0080     0.3060 c3         1 EFV       0.191700
     11 C11          1.2320    -0.0210     4.8790 cp         1 EFV       0.443800
     12 C12          1.9280    -0.0280     6.0880 ca         1 EFV      -0.232300
     13 C13          1.2230    -0.0340     7.2750 ca         1 EFV       0.041000
     14 C14         -0.1760    -0.0330     7.2170 ca         1 EFV      -0.311900
     15 C15         -0.8030    -0.0270     5.9670 ca         1 EFV       0.435600
     16 N16         -0.0980    -0.0160     4.8600 nb         1 EFV      -0.552000
     17 C17         -2.2880    -0.0290     6.2390 c3         1 EFV      -0.032300
     18 N18         -2.4380    -0.0370     7.6990 n          1 EFV       0.004000
     19 C19         -1.2160    -0.0390     8.2590 c          1 EFV       0.637100
     20 O20         -1.0000    -0.0460     9.4560 o          1 EFV      -0.672500
     21 C21         -3.6590    -0.0410     8.3970 cc         1 EFV      -0.274700
     22 C22         -4.9390    -0.0450     7.8230 cc         1 EFV       0.376200
     23 N23         -5.8230    -0.0480     8.7870 nd         1 EFV      -0.593800
     24 N24         -5.1420    -0.0470    10.0110 na         1 EFV       0.396400
     25 C25         -3.8090    -0.0490     9.7470 cd         1 EFV      -0.210300
     26 C26         -5.7560    -0.0490    11.3410 c3         1 EFV       0.157400
     27 C27         -6.6890     1.0840    11.4520 c1         1 EFV       0.171700
     28 N28         -7.4050     1.9590    11.5570 n1         1 EFV      -0.328800
     29 H1          -0.6800    -0.8320     0.1340 h1         1 EFV       0.096367
     30 H2           0.3780    -0.5220    -0.8710 h1         1 EFV       0.096367
     31 H3           0.3800    -0.3680     0.9460 h1         1 EFV       0.096367
     32 H4           0.2370    -0.1660     2.5100 ha         1 EFV       0.169000
     33 H5           3.6020     0.0710     4.6580 h4         1 EFV       0.009100
     34 H6           5.9120     0.1530     1.3330 h1         1 EFV       0.021367
     35 H7           6.0090     0.2130    -0.6760 h1         1 EFV       0.021367
     36 H8           5.8330    -1.0050     0.6130 h1         1 EFV       0.021367
     37 H9           2.9570    -0.0840     5.7540 ha         1 EFV       0.147000
     38 H10          1.4670    -0.2950     8.2970 ha         1 EFV       0.135000
     39 H11         -2.7520    -1.0070     6.2060 h1         1 EFV       0.043700
     40 H12         -3.2340     0.4890     6.1420 h1         1 EFV       0.043700
     41 H13         -4.9970     0.0550     6.7460 h4         1 EFV       0.011100
     42 H14         -3.2620    -0.1150    10.6800 h4         1 EFV       0.163000
     43 H15         -4.9270    -0.1610    12.0290 h1         1 EFV       0.047700
     44 H16         -6.3010    -0.9800    11.2430 h1         1 EFV       0.047700
@<TRIPOS>BOND
     1     1     7 1   
     2     1    29 1   
     3     1    30 1   
     4     1    31 1   
     5     2     3 ar  
     6     2     6 ar  
     7     2     7 1   
     8     3     4 ar  
     9     3    32 1   
    10     4     5 ar  
    11     4    11 1   
    12     5     8 ar  
    13     5    33 1   
    14     6     8 ar  
    15     6     9 1   
    16     9    10 1   
    17    10    34 1   
    18    10    35 1   
    19    10    36 1   
    20    11    12 ar  
    21    11    16 ar  
    22    12    13 ar  
    23    12    37 1   
    24    13    14 ar  
    25    13    38 1   
    26    14    15 ar  
    27    14    19 1   
    28    15    16 ar  
    29    15    17 1   
    30    17    18 1   
    31    17    39 1   
    32    17    40 1   
    33    18    19 1   
    34    18    21 1   
    35    19    20 2   
    36    21    22 1   
    37    21    25 2   
    38    22    23 2   
    39    22    41 1   
    40    23    24 1   
    41    24    25 1   
    42    24    26 1   
    43    25    42 1   
    44    26    27 1   
    45    26    43 1   
    46    26    44 1   
    47    27    28 3   
@<TRIPOS>SUBSTRUCTURE
     1 EFV         1 TEMP              0 ****  ****    0 ROOT
