@<TRIPOS>MOLECULE
EFW
   32    33     1     0     0
SMALL
bcc


@<TRIPOS>ATOM
      1 C5           0.0000     0.0000     0.0000 ca         1 EFW       0.097000
      2 C6           1.3680     0.0000     0.0000 ca         1 EFW      -0.315300
      3 C16          0.0800    -0.0060     2.4110 ca         1 EFW       0.507200
      4 C4          -0.6690     0.0000     1.2340 ca         1 EFW      -0.457900
      5 C7           2.0520     0.0000     1.2140 ca         1 EFW       0.566200
      6 C2          -2.1440     0.0070     1.2840 c          1 EFW       0.369700
      7 C10          4.3600    -1.4480    -0.5510 c3         1 EFW      -0.041400
      8 C11          5.7760    -1.4510    -1.1810 c3         1 EFW      -0.036400
      9 C14          5.5830     0.5780     0.1600 c3         1 EFW      -0.053400
     10 C9           4.1730    -0.0010    -0.0490 c3         1 EFW       0.103500
     11 C12          6.5790    -0.5370    -0.2230 c3         1 EFW       0.194100
     12 N15          1.3960     0.0010     2.3660 nb         1 EFW      -0.634000
     13 N1          -2.7760     0.0070     2.4750 nz         1 EFW       0.201600
     14 N8           3.4370    -0.0000     1.2170 nu         1 EFW      -0.404900
     15 O3          -2.7880     0.0120     0.2540 o          1 EFW      -0.458100
     16 O13          7.7150     0.0130    -0.8910 oh         1 EFW      -0.570800
     17 H1          -0.5540     0.0020    -0.9310 ha         1 EFW       0.133000
     18 H2           1.9150    -0.0000    -0.9350 ha         1 EFW       0.153000
     19 H3          -0.4250    -0.0050     3.3700 h4         1 EFW      -0.051900
     20 H6           6.1880    -2.4530    -1.1880 hc         1 EFW       0.036700
     21 H7           5.7510    -1.0310    -2.1790 hc         1 EFW       0.036700
     22 H8           5.7280     1.4390    -0.4810 hc         1 EFW       0.037700
     23 H9           5.7190     0.8540     1.1990 hc         1 EFW       0.037700
     24 H10          3.6420     0.5810    -0.7930 h1         1 EFW       0.052700
     25 H11          6.8810    -1.0900     0.6580 h1         1 EFW       0.006700
     26 H12         -2.5120     0.8210     2.9930 hn         1 EFW       0.243467
     27 H13         -2.5200    -0.8130     2.9880 hn         1 EFW       0.243467
     28 H14          3.9350     0.0210     2.0850 hn         1 EFW       0.311800
     29 H15          8.4990    -0.2240    -0.4240 ho         1 EFW       0.399000
     30 H4           4.3140    -2.1440     0.2780 hc         1 EFW       0.025700
     31 H131        -3.7660     0.0200     2.3270 hn         1 EFW       0.243467
     32 H5           3.6140    -1.6880    -1.2990 hc         1 EFW       0.025700
@<TRIPOS>BOND
     1     1     2 ar  
     2     1     4 ar  
     3     1    17 1   
     4     2     5 ar  
     5     2    18 1   
     6     3     4 ar  
     7     3    12 ar  
     8     3    19 1   
     9     4     6 1   
    10     5    12 ar  
    11     5    14 1   
    12     6    13 1   
    13     6    15 2   
    14     7     8 1   
    15     7    10 1   
    16     7    30 1   
    17     7    32 1   
    18     8    11 1   
    19     8    20 1   
    20     8    21 1   
    21     9    10 1   
    22     9    11 1   
    23     9    22 1   
    24     9    23 1   
    25    10    14 1   
    26    10    24 1   
    27    11    16 1   
    28    11    25 1   
    29    13    26 1   
    30    13    27 1   
    31    13    31 1   
    32    14    28 1   
    33    16    29 1   
@<TRIPOS>SUBSTRUCTURE
     1 EFW         1 TEMP              0 ****  ****    0 ROOT
