@<TRIPOS>MOLECULE
molecule
   30    31     1     0     0
SMALL
bcc


@<TRIPOS>ATOM
      1 C            0.0000     0.0000     0.0000 c          1 EFX       0.882200
      2 O            1.3470     0.0000     0.0000 o          1 EFX      -0.835800
      3 C1          -0.7390     0.0000     1.2800 ca         1 EFX      -0.106600
      4 C10         -6.3930    -0.0020     1.3050 ca         1 EFX      -0.148000
      5 C11         -5.0120    -0.0020     1.2980 ca         1 EFX      -0.093000
      6 C12         -2.1140     0.0020     3.6920 ca         1 EFX      -0.135000
      7 C13         -0.7330     0.0070     3.6860 ca         1 EFX      -0.165000
      8 C14         -0.0430     0.0070     2.4900 ca         1 EFX      -0.081000
      9 C2          -2.1330    -0.0000     1.2810 ca         1 EFX      -0.087000
     10 C3          -2.8210    -0.0000     2.4900 cp         1 EFX      -0.092000
     11 C4          -4.3060    -0.0000     2.5000 cp         1 EFX      -0.012000
     12 C5          -4.9930     0.0010     3.7090 ca         1 EFX      -0.073000
     13 C6          -6.3880    -0.0000     3.7100 ca         1 EFX      -0.141600
     14 C7          -7.1260     0.0020     4.9900 c          1 EFX       0.650700
     15 C8          -9.1330     0.0040     6.2840 c3         1 EFX       0.141700
     16 C9          -7.0830    -0.0010     2.5000 ca         1 EFX      -0.104000
     17 O1          -0.6070     0.0040    -1.0520 o          1 EFX      -0.835800
     18 O2          -8.4730     0.0020     4.9900 os         1 EFX      -0.432900
     19 O3          -6.5190     0.0030     6.0430 o          1 EFX      -0.561000
     20 H6          -6.9370    -0.0030     0.3680 ha         1 EFX       0.127000
     21 H7          -4.4770    -0.0030     0.3570 ha         1 EFX       0.155000
     22 H8          -2.6500     0.0020     4.6340 ha         1 EFX       0.111000
     23 H9          -0.1900     0.0100     4.6230 ha         1 EFX       0.109000
     24 H10          1.0410     0.0110     2.4910 ha         1 EFX       0.156000
     25 H           -2.6780    -0.0020     0.3450 ha         1 EFX       0.147000
     26 H1          -4.4470     0.0020     4.6450 ha         1 EFX       0.157000
     27 H3          -8.8420    -0.8800     6.8390 h1         1 EFX       0.043700
     28 H4         -10.2070     0.0040     6.1420 h1         1 EFX       0.043700
     29 H2          -8.8420     0.8890     6.8360 h1         1 EFX       0.043700
     30 H5          -8.1670    -0.0020     2.4990 ha         1 EFX       0.134000
@<TRIPOS>BOND
     1    17     1 1
     2     4     5 ar
     3     4    16 ar
     4     5    11 ar
     5     1     3 1
     6     1     2 1
     7    16    13 ar
     8     8     3 ar
     9     8     7 ar
    10     3     9 ar
    11     7     6 ar
    12     9    10 ar
    13    10    11 1
    14    10     6 ar
    15    11    12 ar
    16    13    12 ar
    17    13    14 1
    18    19    14 2
    19    14    18 1
    20    18    15 1
    21     4    20 1
    22     5    21 1
    23     6    22 1
    24     7    23 1
    25     8    24 1
    26     9    25 1
    27    12    26 1
    28    15    27 1
    29    15    28 1
    30    15    29 1
    31    16    30 1
@<TRIPOS>SUBSTRUCTURE
     1 EFX         1 TEMP              0 ****  ****    0 ROOT
