@<TRIPOS>MOLECULE
EFZ
   30    32     1     0     0
SMALL
bcc


@<TRIPOS>ATOM
      1 Cl           0.0000     0.0000     0.0000 cl         1 EFZ      -0.008400
      2 F1           6.4550    -0.5370     2.7700 f          1 EFZ      -0.198633
      3 F2           5.5780    -2.2480     1.5360 f          1 EFZ      -0.198633
      4 F3           4.2100    -0.9530     2.8270 f          1 EFZ      -0.198633
      5 O1           7.6530    -1.4860    -0.9750 o          1 EFZ      -0.637500
      6 O2           6.3300     0.0000     0.0000 os         1 EFZ      -0.364900
      7 N            5.4830    -1.6940    -1.3740 ns         1 EFZ      -0.040100
      8 C1           4.1760    -1.3090    -1.0550 ca         1 EFZ      -0.046400
      9 C2           3.0970    -1.7790    -1.7870 ca         1 EFZ      -0.135000
     10 C3           1.8160    -1.3770    -1.4590 ca         1 EFZ      -0.041000
     11 C4           1.6100    -0.5120    -0.3990 ca         1 EFZ      -0.069600
     12 C5           2.6860    -0.0520     0.3430 ca         1 EFZ      -0.022000
     13 C6           3.9630    -0.4570     0.0230 ca         1 EFZ      -0.195300
     14 C7           5.1440     0.0000     0.8410 c3         1 EFZ       0.336200
     15 C8           4.8980     1.3610     1.3450 c1         1 EFZ      -0.207100
     16 C9           4.7130     2.4540     1.7320 c1         1 EFZ      -0.010100
     17 C10          4.5910     3.8380     2.6020 cx         1 EFZ       0.037400
     18 C11          5.8160     4.4250     3.1590 cx         1 EFZ      -0.073400
     19 C12          4.7540     3.8060     4.2410 cx         1 EFZ      -0.073400
     20 C13          5.3520    -0.9550     2.0190 c3         1 EFZ       0.557900
     21 C14          6.5260    -1.0740    -0.7890 c          1 EFZ       0.755600
     22 HN           5.6450    -2.3180    -2.1400 hn         1 EFZ       0.198500
     23 H2           3.2590    -2.4550    -2.6190 ha         1 EFZ       0.119000
     24 H3           0.9700    -1.7430    -2.0290 ha         1 EFZ       0.118000
     25 H5           2.5260     0.6590     1.1450 ha         1 EFZ       0.133000
     26 H101         3.8840     4.5780     2.2460 hc         1 EFZ       0.052700
     27 H111         5.8670     5.5070     3.1260 hc         1 EFZ       0.052950
     28 H112         6.7170     3.8430     3.0110 hc         1 EFZ       0.052950
     29 H121         5.0200     2.8490     4.6730 hc         1 EFZ       0.052950
     30 H122         4.1620     4.5280     4.7900 hc         1 EFZ       0.052950
@<TRIPOS>BOND
     1     1    11 1   
     2     2    20 1   
     3     3    20 1   
     4     4    20 1   
     5     5    21 2   
     6     6    14 1   
     7     6    21 1   
     8     7     8 1   
     9     7    21 1   
    10     7    22 1   
    11     8     9 ar  
    12     8    13 ar  
    13     9    10 ar  
    14     9    23 1   
    15    10    11 ar  
    16    10    24 1   
    17    11    12 ar  
    18    12    13 ar  
    19    12    25 1   
    20    13    14 1   
    21    14    15 1   
    22    14    20 1   
    23    15    16 3   
    24    16    17 1   
    25    17    18 1   
    26    17    19 1   
    27    17    26 1   
    28    18    19 1   
    29    18    27 1   
    30    18    28 1   
    31    19    29 1   
    32    19    30 1   
@<TRIPOS>SUBSTRUCTURE
     1 EFZ         1 TEMP              0 ****  ****    0 ROOT
