@<TRIPOS>MOLECULE
molecule
   52    52     1     0     0
SMALL
bcc


@<TRIPOS>ATOM
      1 S            0.0000     0.0000     0.0000 sy         1 EG1       1.234200
      2 O1           1.4210     0.0000     0.0000 o          1 EG1      -0.511800
      3 O2          -0.8220     0.0000     1.1580 o          1 EG1      -0.511800
      4 N1          -0.4500    -1.3340    -0.8710 nz         1 EG1      -0.807500
      5 C1          -1.2280     3.6540    -2.3810 ca         1 EG1      -0.041600
      6 C2          -2.1110     3.0890    -1.4590 ca         1 EG1      -0.098000
      7 C3          -1.7310     1.9750    -0.7380 ca         1 EG1      -0.032500
      8 C4          -0.4770     1.4210    -0.9260 ca         1 EG1      -0.334500
      9 C5           0.4020     1.9760    -1.8380 ca         1 EG1      -0.032500
     10 C6           0.0310     3.0850    -2.5700 ca         1 EG1      -0.098000
     11 O3          -2.7290     5.3360    -2.9940 o          1 EG1      -0.570100
     12 N2          -0.7750     5.3900    -4.0460 ns         1 EG1      -0.566900
     13 C8          -1.1710     6.5720    -4.8150 c3         1 EG1       0.116000
     14 C9          -0.0290     6.9820    -5.7440 c3         1 EG1       0.102400
     15 O4           0.2670     5.9090    -6.6400 os         1 EG1      -0.412600
     16 C10          1.3370     6.3520    -7.4770 c3         1 EG1       0.126400
     17 C11          1.7050     5.2420    -8.4650 c3         1 EG1       0.125400
     18 O5           0.5680     4.9270    -9.2710 os         1 EG1      -0.410600
     19 C12          0.9740     3.8910   -10.1670 c3         1 EG1       0.103400
     20 C13         -0.2040     3.5030   -11.0650 c3         1 EG1       0.112000
     21 N3          -0.6370     4.6730   -11.8330 ns         1 EG1      -0.533900
     22 C14         -1.6660     4.5680   -12.6960 c          1 EG1       0.635100
     23 O6          -2.2330     3.5050   -12.8360 o          1 EG1      -0.600100
     24 C15         -2.1120     5.7710   -13.4880 c3         1 EG1       0.011800
     25 N4          -3.2410     5.3980   -14.3490 nz         1 EG1      -0.793600
     26 HN11         0.0100    -1.3230    -1.7600 hn         1 EG1       0.493133
     27 HN12        -1.4410    -1.3230    -1.0090 hn         1 EG1       0.493133
     28 H2          -3.0910     3.5240    -1.3090 ha         1 EG1       0.174000
     29 H3          -2.4150     1.5350    -0.0220 ha         1 EG1       0.161500
     30 H5           1.3800     1.5340    -1.9850 ha         1 EG1       0.161500
     31 H6           0.7210     3.5190    -3.2840 ha         1 EG1       0.174000
     32 HN2          0.1390     5.0000    -4.1640 hn         1 EG1       0.320500
     33 H81         -2.0510     6.3410    -5.4040 h1         1 EG1       0.073700
     34 H82         -1.3950     7.3860    -4.1360 h1         1 EG1       0.073700
     35 H91          0.8500     7.2140    -5.1550 h1         1 EG1       0.045200
     36 H92         -0.3230     7.8560    -6.3130 h1         1 EG1       0.045200
     37 H101         2.1980     6.5910    -6.8650 h1         1 EG1       0.044700
     38 H102         1.0260     7.2340    -8.0240 h1         1 EG1       0.044700
     39 H111         2.0160     4.3600    -7.9180 h1         1 EG1       0.043200
     40 H112         2.5160     5.5780    -9.1000 h1         1 EG1       0.043200
     41 H121         1.2940     3.0260    -9.5980 h1         1 EG1       0.049200
     42 H122         1.7940     4.2440   -10.7800 h1         1 EG1       0.049200
     43 H131         0.1030     2.7180   -11.7450 h1         1 EG1       0.078700
     44 H132        -1.0240     3.1500   -10.4520 h1         1 EG1       0.078700
     45 HN3         -0.1470     5.5410   -11.7410 hn         1 EG1       0.337500
     46 H151        -1.2910     6.1240   -14.1010 hx         1 EG1       0.126700
     47 H152        -2.4190     6.5560   -12.8080 hx         1 EG1       0.126700
     48 HN41        -2.9570     4.6730   -14.9770 hn         1 EG1       0.468467
     49 HN42        -3.5380     6.1970   -14.8740 hn         1 EG1       0.468467
     50 H13         -0.1910    -2.1610    -0.3730 hn         1 EG1       0.493133
     51 H43         -3.9980     5.0680   -13.7830 hn         1 EG1       0.468467
     52 C7          -1.6290     4.8460    -3.1570 c          1 EG1       0.653700
@<TRIPOS>BOND
     1     1     2 2
     2     1     3 2
     3     1     4 1
     4     1     8 1
     5     4    26 1
     6     4    27 1
     7     5     6 ar
     8     5    10 ar
     9     5    52 1
    10     6     7 ar
    11     6    28 1
    12     7     8 ar
    13     7    29 1
    14     8     9 ar
    15     9    10 ar
    16     9    30 1
    17    10    31 1
    18    52    11 2
    19    52    12 1
    20    12    13 1
    21    12    32 1
    22    13    14 1
    23    13    33 1
    24    13    34 1
    25    14    15 1
    26    14    35 1
    27    14    36 1
    28    15    16 1
    29    16    17 1
    30    16    37 1
    31    16    38 1
    32    17    18 1
    33    17    39 1
    34    17    40 1
    35    18    19 1
    36    19    20 1
    37    19    41 1
    38    19    42 1
    39    20    21 1
    40    20    43 1
    41    20    44 1
    42    21    22 1
    43    21    45 1
    44    22    23 2
    45    22    24 1
    46    24    25 1
    47    24    46 1
    48    24    47 1
    49    25    48 1
    50    25    49 1
    51    50     4 1
    52    51    25 1
@<TRIPOS>SUBSTRUCTURE
     1 EG1         1 TEMP              0 ****  ****    0 ROOT
