@<TRIPOS>MOLECULE
EG2
   45    45     1     0     0
SMALL
bcc


@<TRIPOS>ATOM
      1 S            0.0000     0.0000     0.0000 sy         1 EG2       0.943200
      2 O1           1.4210     0.0000     0.0000 o          1 EG2      -0.488800
      3 O2          -0.8210     0.0000     1.1590 o          1 EG2      -0.488800
      4 N1          -0.4480    -1.3350    -0.8720 nz         1 EG2      -0.132500
      5 C1          -1.2300     3.6520    -2.3830 ca         1 EG2      -0.045600
      6 C2          -2.1120     3.0860    -1.4610 ca         1 EG2      -0.077000
      7 C3          -1.7310     1.9740    -0.7390 ca         1 EG2       0.009500
      8 C4          -0.4780     1.4200    -0.9260 ca         1 EG2      -0.221500
      9 C5           0.4000     1.9760    -1.8390 ca         1 EG2       0.009500
     10 C6           0.0300     3.0840    -2.5720 ca         1 EG2      -0.077000
     11 O3          -2.7320     5.3330    -2.9970 o          1 EG2      -0.606100
     12 N2          -0.7790     5.3860    -4.0490 ns         1 EG2      -0.177900
     13 C8          -1.1760     6.5680    -4.8190 c3         1 EG2       0.048000
     14 C9          -0.0340     6.9790    -5.7490 c3         1 EG2       0.186400
     15 O4           0.2640     5.9050    -6.6430 os         1 EG2      -0.414600
     16 C10          1.3330     6.3480    -7.4810 c3         1 EG2       0.198400
     17 C11          1.7010     5.2390    -8.4670 c3         1 EG2       0.211400
     18 O5           0.5650     4.9220    -9.2740 os         1 EG2      -0.423600
     19 C12          0.9710     3.8850   -10.1700 c3         1 EG2       0.187400
     20 C13         -0.2050     3.4960   -11.0670 c3         1 EG2      -0.049200
     21 N3          -0.6410     4.6690   -11.8380 nz         1 EG2       0.090400
     22 HN11        -0.1960    -2.1620    -0.3680 hn         1 EG2       0.314133
     23 HN12         0.0180    -1.3270    -1.7570 hn         1 EG2       0.314133
     24 H2          -3.0930     3.5200    -1.3110 ha         1 EG2       0.140500
     25 H3          -2.4150     1.5340    -0.0230 ha         1 EG2       0.130000
     26 H5           1.3780     1.5340    -1.9860 ha         1 EG2       0.130000
     27 H6           0.7190     3.5180    -3.2860 ha         1 EG2       0.140500
     28 HN2          0.1400     5.0040    -4.1580 hn         1 EG2       0.179500
     29 H81         -2.0550     6.3370    -5.4080 h1         1 EG2       0.043700
     30 H82         -1.4000     7.3820    -4.1410 h1         1 EG2       0.043700
     31 H91          0.8450     7.2120    -5.1600 h1         1 EG2       0.012700
     32 H92         -0.3280     7.8520    -6.3190 h1         1 EG2       0.012700
     33 H101         2.1940     6.5890    -6.8700 h1         1 EG2       0.014700
     34 H102         1.0210     7.2290    -8.0290 h1         1 EG2       0.014700
     35 H111         2.5120     5.5760    -9.1020 h1         1 EG2       0.012200
     36 H112         2.0130     4.3580    -7.9200 h1         1 EG2       0.012200
     37 H121         1.2930     3.0210    -9.6010 h1         1 EG2       0.032200
     38 H122         1.7910     4.2390   -10.7830 h1         1 EG2       0.032200
     39 H131        -1.0250     3.1420   -10.4540 hx         1 EG2       0.089200
     40 H132         0.1030     2.7110   -11.7460 hx         1 EG2       0.089200
     41 HN31        -1.1630     5.2830   -11.2450 hn         1 EG2       0.227800
     42 HN32         0.1610     5.1500   -12.1950 hn         1 EG2       0.227800
     43 H13         -1.4380    -1.3190    -1.0210 hn         1 EG2       0.314133
     44 H33         -1.2050     4.3700   -12.6090 hn         1 EG2       0.227800
     45 C7          -1.6320     4.8430    -3.1600 c          1 EG2       0.564700
@<TRIPOS>BOND
     1     1     2 2   
     2     1     3 2   
     3     1     4 1   
     4     1     8 1   
     5     4    22 1   
     6     4    23 1   
     7     4    43 1   
     8     5     6 ar  
     9     5    10 ar  
    10     5    45 1   
    11     6     7 ar  
    12     6    24 1   
    13     7     8 ar  
    14     7    25 1   
    15     8     9 ar  
    16     9    10 ar  
    17     9    26 1   
    18    10    27 1   
    19    11    45 2   
    20    12    13 1   
    21    12    28 1   
    22    12    45 1   
    23    13    14 1   
    24    13    29 1   
    25    13    30 1   
    26    14    15 1   
    27    14    31 1   
    28    14    32 1   
    29    15    16 1   
    30    16    17 1   
    31    16    33 1   
    32    16    34 1   
    33    17    18 1   
    34    17    35 1   
    35    17    36 1   
    36    18    19 1   
    37    19    20 1   
    38    19    37 1   
    39    19    38 1   
    40    20    21 1   
    41    20    39 1   
    42    20    40 1   
    43    21    41 1   
    44    21    42 1   
    45    21    44 1   
@<TRIPOS>SUBSTRUCTURE
     1 EG2         1 TEMP              0 ****  ****    0 ROOT
