@<TRIPOS>MOLECULE
molecule
   65    66     1     0     0
SMALL
bcc


@<TRIPOS>ATOM
      1 S            0.0000     0.0000     0.0000 sy         1 EG3       1.234200
      2 O1           1.4200     0.0000     0.0000 o          1 EG3      -0.512300
      3 O2          -0.8230     0.0000     1.1590 o          1 EG3      -0.512300
      4 N1          -0.4490    -1.3360    -0.8700 nz         1 EG3      -0.807500
      5 C1          -1.2340     3.6480    -2.3860 ca         1 EG3      -0.040600
      6 C2          -2.1150     3.0830    -1.4630 ca         1 EG3      -0.098500
      7 C3          -1.7340     1.9720    -0.7400 ca         1 EG3      -0.032000
      8 C4          -0.4800     1.4180    -0.9280 ca         1 EG3      -0.335500
      9 C5           0.3980     1.9730    -1.8410 ca         1 EG3      -0.032000
     10 C6           0.0270     3.0800    -2.5750 ca         1 EG3      -0.098500
     11 O3          -2.7370     5.3280    -3.0020 o          1 EG3      -0.570100
     12 N2          -0.7830     5.3820    -4.0550 ns         1 EG3      -0.566900
     13 C8          -1.1820     6.5610    -4.8270 c3         1 EG3       0.116000
     14 C9          -0.0390     6.9720    -5.7570 c3         1 EG3       0.102400
     15 O4           0.2580     5.8970    -6.6500 os         1 EG3      -0.411600
     16 C10          1.3270     6.3400    -7.4880 c3         1 EG3       0.126400
     17 C11          1.6960     5.2310    -8.4730 c3         1 EG3       0.125400
     18 O5           0.5600     4.9120    -9.2790 os         1 EG3      -0.409600
     19 C12          0.9660     3.8750   -10.1740 c3         1 EG3       0.103400
     20 C13         -0.2110     3.4840   -11.0700 c3         1 EG3       0.112000
     21 N3          -0.6460     4.6510   -11.8410 ns         1 EG3      -0.541900
     22 C14         -1.6750     4.5440   -12.7040 c          1 EG3       0.631100
     23 O6          -2.2420     3.4810   -12.8420 o          1 EG3      -0.584100
     24 C15         -2.1230     5.7450   -13.4960 c3         1 EG3       0.010500
     25 N4          -2.6790     5.3040   -14.7820 nz         1 EG3      -0.843600
     26 C16         -3.1940     6.5050   -12.7110 c3         1 EG3      -0.045100
     27 C17         -3.6400     7.7050   -13.5040 ca         1 EG3      -0.164300
     28 C18         -4.6970     7.5940   -14.3900 ca         1 EG3      -0.136500
     29 C19         -5.1070     8.6960   -15.1160 ca         1 EG3      -0.102500
     30 C20         -4.4610     9.9080   -14.9590 ca         1 EG3      -0.092000
     31 C21         -3.4070    10.0180   -14.0740 ca         1 EG3      -0.102500
     32 C22         -2.9990     8.9180   -13.3430 ca         1 EG3      -0.136500
     33 HN11         0.0120    -1.3260    -1.7580 hn         1 EG3       0.493133
     34 HN12        -0.1900    -2.1630    -0.3690 hn         1 EG3       0.493133
     35 H2          -3.0960     3.5180    -1.3140 ha         1 EG3       0.174500
     36 H3          -2.4170     1.5330    -0.0230 ha         1 EG3       0.161000
     37 H5           1.3760     1.5310    -1.9870 ha         1 EG3       0.161000
     38 H6           0.7160     3.5130    -3.2900 ha         1 EG3       0.174500
     39 HN2          0.1330     4.9960    -4.1700 hn         1 EG3       0.320500
     40 H81         -1.4080     7.3760    -4.1500 h1         1 EG3       0.074200
     41 H82         -2.0610     6.3270    -5.4160 h1         1 EG3       0.074200
     42 H91         -0.3340     7.8450    -6.3280 h1         1 EG3       0.045200
     43 H92          0.8400     7.2060    -5.1680 h1         1 EG3       0.045200
     44 H101         2.1890     6.5810    -6.8770 h1         1 EG3       0.044200
     45 H102         1.0150     7.2200    -8.0370 h1         1 EG3       0.044200
     46 H111         2.5070     5.5660    -9.1080 h1         1 EG3       0.042200
     47 H112         2.0080     4.3500    -7.9240 h1         1 EG3       0.042200
     48 H121         1.7860     4.2280   -10.7890 h1         1 EG3       0.047200
     49 H122         1.2880     3.0110    -9.6040 h1         1 EG3       0.047200
     50 H131         0.0960     2.6970   -11.7480 h1         1 EG3       0.077700
     51 H132        -1.0310     3.1320   -10.4550 h1         1 EG3       0.077700
     52 HN3         -0.1570     5.5200   -11.7510 hn         1 EG3       0.332500
     53 H15         -1.2760     6.3960   -13.6740 hx         1 EG3       0.110700
     54 HN41        -1.9050     5.8980   -15.0030 hn         1 EG3       0.484467
     55 HN42        -2.5330     4.3350   -14.9890 hn         1 EG3       0.484467
     56 H161        -4.0410     5.8540   -12.5330 hc         1 EG3       0.099200
     57 H162        -2.7830     6.8310   -11.7630 hc         1 EG3       0.099200
     58 H18         -5.2030     6.6450   -14.5140 ha         1 EG3       0.130000
     59 H19         -5.9340     8.6100   -15.8100 ha         1 EG3       0.157500
     60 H20         -4.7820    10.7710   -15.5300 ha         1 EG3       0.161000
     61 H21         -2.9020    10.9680   -13.9480 ha         1 EG3       0.157500
     62 H22         -2.1720     9.0060   -12.6490 ha         1 EG3       0.130000
     63 H13         -1.4400    -1.3240    -1.0120 hn         1 EG3       0.493133
     64 H43         -3.5720     5.6950   -15.0070 hn         1 EG3       0.484467
     65 C7          -1.6360     4.8390    -3.1650 c          1 EG3       0.652700
@<TRIPOS>BOND
     1     1     2 2
     2     1     3 2
     3     1     4 1
     4     1     8 1
     5     4    33 1
     6     4    34 1
     7     5     6 ar
     8     5    10 ar
     9     5    65 1
    10     6     7 ar
    11     6    35 1
    12     7     8 ar
    13     7    36 1
    14     8     9 ar
    15     9    10 ar
    16     9    37 1
    17    10    38 1
    18    65    11 2
    19    65    12 1
    20    12    13 1
    21    12    39 1
    22    13    14 1
    23    13    40 1
    24    13    41 1
    25    14    15 1
    26    14    42 1
    27    14    43 1
    28    15    16 1
    29    16    17 1
    30    16    44 1
    31    16    45 1
    32    17    18 1
    33    17    46 1
    34    17    47 1
    35    18    19 1
    36    19    20 1
    37    19    48 1
    38    19    49 1
    39    20    21 1
    40    20    50 1
    41    20    51 1
    42    21    22 1
    43    21    52 1
    44    22    23 2
    45    22    24 1
    46    24    25 1
    47    24    26 1
    48    24    53 1
    49    25    54 1
    50    25    55 1
    51    26    27 1
    52    26    56 1
    53    26    57 1
    54    27    28 ar
    55    27    32 ar
    56    28    29 ar
    57    28    58 1
    58    29    30 ar
    59    29    59 1
    60    30    31 ar
    61    30    60 1
    62    31    32 ar
    63    31    61 1
    64    32    62 1
    65    63     4 1
    66    64    25 1
@<TRIPOS>SUBSTRUCTURE
     1 EG3         1 TEMP              0 ****  ****    0 ROOT
