@<TRIPOS>MOLECULE
molecule
   37    38     1     0     0
SMALL
bcc


@<TRIPOS>ATOM
      1 O01          0.0000     0.0000     0.0000 o          1 EG6      -0.640100
      2 C02          1.2180     0.0000     0.0000 c          1 EG6       0.684700
      3 N03          1.8910     0.0000     1.1680 ns         1 EG6      -0.520900
      4 C04          1.1580     0.0000     2.4360 c3         1 EG6       0.007700
      5 C05          0.7940    -1.4370     2.8150 c3         1 EG6       0.143400
      6 O06          1.9880    -2.1790     3.0690 oh         1 EG6      -0.598800
      7 C10          1.9510    -0.0070    -1.2690 cc         1 EG6      -0.183000
      8 C11          1.3970    -0.0130    -2.5210 cc         1 EG6       0.414600
      9 C12         -0.0910    -0.0140    -2.7600 c3         1 EG6      -0.108400
     10 N13          2.2730    -0.0180    -3.4900 nc         1 EG6      -0.688000
     11 C14          3.5330    -0.0150    -3.1580 cd         1 EG6       0.452900
     12 C15          4.6580    -0.0190    -4.1160 ca         1 EG6      -0.075500
     13 C16          4.4080    -0.0250    -5.4890 ca         1 EG6      -0.112500
     14 C17          5.4620    -0.0280    -6.3790 ca         1 EG6      -0.086000
     15 C18          6.7650    -0.0260    -5.9130 ca         1 EG6      -0.186300
     16 C19          7.9120    -0.0290    -6.8910 c3         1 EG6       0.672200
     17 F20          7.5250    -0.6940    -8.0590 f          1 EG6      -0.227300
     18 F21          8.2660     1.2880    -7.1990 f          1 EG6      -0.227300
     19 F22          9.0080    -0.6860    -6.3210 f          1 EG6      -0.227300
     20 C23          7.0190    -0.0190    -4.5530 ca         1 EG6      -0.086000
     21 C24          5.9750    -0.0090    -3.6520 ca         1 EG6      -0.112500
     22 S25          3.7030    -0.0000    -1.4560 ss         1 EG6      -0.125300
     23 H1           0.2530     0.5860     2.3300 h1         1 EG6       0.080700
     24 H2           0.2490    -1.8980     2.0000 h1         1 EG6       0.020700
     25 H3           0.1770    -1.4300     3.7050 h1         1 EG6       0.020700
     26 H4           1.7640    -3.0610     3.3170 ho         1 EG6       0.376000
     27 H5          -0.5340     0.8510    -2.2820 hc         1 EG6       0.056033
     28 H6          -0.2860     0.0220    -3.8250 hc         1 EG6       0.056033
     29 H7          -0.5230    -0.9170    -2.3450 hc         1 EG6       0.056033
     30 H8           3.3890    -0.0280    -5.8560 ha         1 EG6       0.156000
     31 H9           5.2690    -0.0330    -7.4450 ha         1 EG6       0.144500
     32 H10          8.0420    -0.0140    -4.1950 ha         1 EG6       0.144500
     33 H11          6.1750    -0.0040    -2.5880 ha         1 EG6       0.156000
     34 C1           2.0230     0.6010     3.5150 c          1 EG6       0.899600
     35 O2           1.5540     0.7050     4.7690 o          1 EG6      -0.836800
     36 O1           3.1360     0.9890     3.2520 o          1 EG6      -0.836800
     37 H12          2.8910     0.0140     1.1680 hn         1 EG6       0.334500
@<TRIPOS>BOND
     1    19    16 1
     2    17    16 1
     3    16    18 1
     4    16    15 1
     5    20    15 ar
     6    20    21 ar
     7    15    14 ar
     8    21    12 ar
     9    14    13 ar
    10    12    13 ar
    11    12    11 1
    12    10    11 2
    13    10     8 1
    14    11    22 1
    15     9     8 1
    16     8     7 2
    17    22     7 1
    18     7     2 1
    19     3     2 1
    20     3     4 1
    21     2     1 2
    22     4     5 1
    23     5     6 1
    24     4    23 1
    25     5    24 1
    26     5    25 1
    27     6    26 1
    28     9    27 1
    29     9    28 1
    30     9    29 1
    31    13    30 1
    32    14    31 1
    33    20    32 1
    34    21    33 1
    35     4    34 1
    36    34    35 1
    37    34    36 1
    38     3    37 1
@<TRIPOS>SUBSTRUCTURE
     1 EG6         1 TEMP              0 ****  ****    0 ROOT
