@<TRIPOS>MOLECULE
EG6
   37    38     1     0     0
SMALL
bcc


@<TRIPOS>ATOM
      1 O01          0.0000     0.0000     0.0000 o          1 EG6      -0.690100
      2 C02          1.2180     0.0000     0.0000 c          1 EG6       0.595700
      3 N03          1.8910     0.0000     1.1680 ns         1 EG6      -0.097900
      4 C04          1.1580     0.0000     2.4360 c3         1 EG6      -0.113300
      5 C05          0.7940    -1.4370     2.8150 c3         1 EG6       0.225400
      6 O06          1.9880    -2.1790     3.0690 oh         1 EG6      -0.581800
      7 C10          1.9510    -0.0070    -1.2690 cc         1 EG6      -0.129000
      8 C11          1.3970    -0.0130    -2.5210 cd         1 EG6       0.362600
      9 C12         -0.0910    -0.0140    -2.7600 c3         1 EG6      -0.016400
     10 N13          2.2730    -0.0180    -3.4900 nd         1 EG6      -0.559000
     11 C14          3.5330    -0.0150    -3.1580 cc         1 EG6       0.447900
     12 C15          4.6580    -0.0190    -4.1160 ca         1 EG6      -0.067500
     13 C16          4.4080    -0.0250    -5.4890 ca         1 EG6      -0.092000
     14 C17          5.4620    -0.0280    -6.3790 ca         1 EG6      -0.047000
     15 C18          6.7650    -0.0260    -5.9130 ca         1 EG6      -0.220300
     16 C19          7.9120    -0.0290    -6.8910 c3         1 EG6       0.639200
     17 F20          7.5250    -0.6940    -8.0590 f          1 EG6      -0.211300
     18 F21          8.2660     1.2880    -7.1990 f          1 EG6      -0.211300
     19 F22          9.0080    -0.6860    -6.3210 f          1 EG6      -0.211300
     20 C23          7.0190    -0.0190    -4.5530 ca         1 EG6      -0.047000
     21 C24          5.9750    -0.0090    -3.6520 ca         1 EG6      -0.092000
     22 S25          3.7030    -0.0000    -1.4560 ss         1 EG6      -0.250300
     23 H1           0.2530     0.5860     2.3300 h1         1 EG6       0.059700
     24 H2           0.2490    -1.8980     2.0000 h1         1 EG6      -0.010800
     25 H3           0.1770    -1.4300     3.7050 h1         1 EG6      -0.010800
     26 H4           1.7640    -3.0610     3.3170 ho         1 EG6       0.365000
     27 H5          -0.5340     0.8510    -2.2820 hc         1 EG6       0.020033
     28 H6          -0.2860     0.0220    -3.8250 hc         1 EG6       0.020033
     29 H7          -0.5230    -0.9170    -2.3450 hc         1 EG6       0.020033
     30 H8           3.3890    -0.0280    -5.8560 ha         1 EG6       0.130000
     31 H9           5.2690    -0.0330    -7.4450 ha         1 EG6       0.114500
     32 H10          8.0420    -0.0140    -4.1950 ha         1 EG6       0.114500
     33 H11          6.1750    -0.0040    -2.5880 ha         1 EG6       0.130000
     34 C1           2.0230     0.6010     3.5150 c          1 EG6       0.986600
     35 O2           1.5540     0.7050     4.7690 o          1 EG6      -0.884300
     36 O1           3.1360     0.9890     3.2520 o          1 EG6      -0.884300
     37 H12          2.8910     0.0140     1.1680 hn         1 EG6       0.198500
@<TRIPOS>BOND
     1     1     2 2   
     2     2     3 1   
     3     2     7 1   
     4     3     4 1   
     5     3    37 1   
     6     4     5 1   
     7     4    23 1   
     8     4    34 1   
     9     5     6 1   
    10     5    24 1   
    11     5    25 1   
    12     6    26 1   
    13     7     8 2   
    14     7    22 1   
    15     8     9 1   
    16     8    10 1   
    17     9    27 1   
    18     9    28 1   
    19     9    29 1   
    20    10    11 2   
    21    11    12 1   
    22    11    22 1   
    23    12    13 ar  
    24    12    21 ar  
    25    13    14 ar  
    26    13    30 1   
    27    14    15 ar  
    28    14    31 1   
    29    15    16 1   
    30    15    20 ar  
    31    16    17 1   
    32    16    18 1   
    33    16    19 1   
    34    20    21 ar  
    35    20    32 1   
    36    21    33 1   
    37    34    35 1   
    38    34    36 1   
@<TRIPOS>SUBSTRUCTURE
     1 EG6         1 TEMP              0 ****  ****    0 ROOT
