@<TRIPOS>MOLECULE
molecule
   59    62     1     0     0
SMALL
bcc


@<TRIPOS>ATOM
      1 C7           0.0000     0.0000     0.0000 ca         1 EG7      -0.086300
      2 C6           4.8600    -3.1520    -3.2340 cc         1 EG7      -0.385300
      3 C1           2.0740     0.0000     1.1970 ca         1 EG7      -0.144000
      4 C5           1.6900    -6.2210    -5.3610 ca         1 EG7      -0.290300
      5 C4           1.3850     0.0120     2.3960 ca         1 EG7      -0.110000
      6 C3           0.3930    -6.4630    -5.7760 ca         1 EG7      -0.124000
      7 C2           1.3820     0.0000     0.0000 ca         1 EG7      -0.100000
      8 C8          -0.5870    -5.5270    -5.4680 ca         1 EG7       0.090600
      9 C9          -0.6930     0.0050     1.1980 ca         1 EG7       0.169900
     10 C10          0.0020     0.0110     2.3970 ca         1 EG7      -0.016600
     11 C11         -0.2400    -4.3910    -4.7630 ca         1 EG7       0.459600
     12 C12          4.7410    -1.9180    -2.6930 cd         1 EG7      -0.074600
     13 C13          1.9670    -5.0590    -4.6490 ca         1 EG7       0.635200
     14 C14          3.5790    -3.5790    -3.6200 cd         1 EG7       0.600200
     15 C15         -2.5530    -5.0820    -3.1390 c          1 EG7       0.900600
     16 C16         -0.8400    -3.7020    -1.9890 c3         1 EG7      -0.045400
     17 C17         -2.9920    -2.6750    -2.7240 c3         1 EG7      -0.042400
     18 C18         -0.2460    -2.2950    -1.8840 c3         1 EG7       0.149800
     19 C19         -2.3360    -1.2980    -2.5990 c3         1 EG7       0.162500
     20 C20         -1.9230    -3.7140    -3.0720 c3         1 EG7      -0.159000
     21 C22         -3.3980    -0.2590    -2.2310 c3         1 EG7      -0.094100
     22 C23         -0.7530    -0.0000    -1.3050 c3         1 EG7       0.200100
     23 C24         -1.2970    -3.3710    -4.4260 c3         1 EG7      -0.106700
     24 N25          1.0060    -4.1870    -4.3800 nb         1 EG7      -0.695000
     25 N26          2.7250    -2.6300    -3.3130 nc         1 EG7      -0.482800
     26 N27          3.4360    -1.5750    -2.7280 na         1 EG7      -0.056600
     27 N28         -1.3080    -1.3390    -1.5500 n3         1 EG7      -0.718600
     28 N29          3.2680    -4.8030    -4.2260 nu         1 EG7      -0.865600
     29 F33         -2.0440     0.0060     1.1990 f          1 EG7      -0.114900
     30 Cl1         -0.8640     0.0250     3.9030 cl         1 EG7      -0.105400
     31 H40          5.7810    -3.7100    -3.3520 ha         1 EG7       0.142000
     32 H35          3.1570     0.0000     1.1960 ha         1 EG7       0.129000
     33 H39          2.4790    -6.9300    -5.5810 ha         1 EG7       0.113000
     34 H38          1.9280     0.0140     3.3330 ha         1 EG7       0.139000
     35 H37          0.1480    -7.3610    -6.3300 ha         1 EG7       0.136000
     36 H36          1.9240    -0.0080    -0.9380 ha         1 EG7       0.127000
     37 H41         -0.0580    -4.4040    -2.2530 hc         1 EG7       0.061700
     38 H42         -1.2770    -3.9800    -1.0390 hc         1 EG7       0.061700
     39 H44         -3.7390    -2.6490    -3.5090 hc         1 EG7       0.058700
     40 H43         -3.4590    -2.9390    -1.7830 hc         1 EG7       0.058700
     41 H45          0.2000    -2.0210    -2.8330 h1         1 EG7       0.037700
     42 H46          0.5080    -2.2800    -1.1070 h1         1 EG7       0.037700
     43 H47         -1.8760    -1.0320    -3.5430 h1         1 EG7       0.015700
     44 H49          5.6060    -0.0270    -2.2380 hc         1 EG7       0.043033
     45 H48          6.0270    -1.3190    -1.1050 hc         1 EG7       0.043033
     46 H50          6.7690    -1.2730    -2.7100 hc         1 EG7       0.043033
     47 H51         -3.6210    -0.3290    -1.1730 hc         1 EG7       0.031033
     48 H52         -3.0270     0.7330    -2.4560 hc         1 EG7       0.031033
     49 H53         -4.2990    -0.4450    -2.8030 hc         1 EG7       0.031033
     50 H55         -1.5600     0.7210    -1.2570 h1         1 EG7       0.038200
     51 H54         -0.0800     0.2640    -2.1110 h1         1 EG7       0.038200
     52 H57         -0.8480    -2.3870    -4.3770 hc         1 EG7       0.044700
     53 H56         -2.0650    -3.3800    -5.1900 hc         1 EG7       0.044700
     54 H58          3.0440    -0.7170    -2.3940 hn         1 EG7       0.318700
     55 H59          3.9860    -5.4840    -4.3760 hn         1 EG7       0.453800
     56 O30         -3.7360    -5.2120    -2.9360 o          1 EG7      -0.840300
     57 O31         -1.7980    -6.1550    -3.4240 o          1 EG7      -0.840300
     58 F32         -1.8670    -5.7260    -5.8560 f          1 EG7      -0.118900
     59 C21          5.8650    -1.0750    -2.1480 c3         1 EG7      -0.027800
@<TRIPOS>BOND
     1    26    25 1
     2    26    12 1
     3    25    14 2
     4    59    12 1
     5    30    10 1
     6    12     2 2
     7    14     2 1
     8    14    28 1
     9    10     5 ar
    10    10     9 ar
    11     5     3 ar
    12    28    13 1
    13    29     9 1
    14     9     1 ar
    15     3     7 ar
    16    13     4 ar
    17    13    24 ar
    18     4     6 ar
    19     1     7 ar
    20     1    22 1
    21    24    11 ar
    22    18    16 1
    23    18    27 1
    24    22    27 1
    25     6     8 ar
    26    11     8 ar
    27    11    23 1
    28    16    20 1
    29    27    19 1
    30     8    58 1
    31    23    20 1
    32    20    17 1
    33    20    15 1
    34    19    17 1
    35    19    21 1
    36    57    15 1
    37    15    56 1
    38     2    31 1
    39     3    32 1
    40     4    33 1
    41     5    34 1
    42     6    35 1
    43     7    36 1
    44    16    37 1
    45    16    38 1
    46    17    39 1
    47    17    40 1
    48    18    41 1
    49    18    42 1
    50    19    43 1
    51    59    44 1
    52    59    45 1
    53    59    46 1
    54    21    47 1
    55    21    48 1
    56    21    49 1
    57    22    50 1
    58    22    51 1
    59    23    52 1
    60    23    53 1
    61    26    54 1
    62    28    55 1
@<TRIPOS>SUBSTRUCTURE
     1 EG7         1 TEMP              0 ****  ****    0 ROOT
