@<TRIPOS>MOLECULE
EG7
   59    62     1     0     0
SMALL
bcc


@<TRIPOS>ATOM
      1 C7           0.0000     0.0000     0.0000 ca         1 EG7      -0.082300
      2 C6           4.8600    -3.1520    -3.2340 cc         1 EG7      -0.379300
      3 C1           2.0740     0.0000     1.1970 ca         1 EG7      -0.113000
      4 C5           1.6900    -6.2210    -5.3610 ca         1 EG7      -0.268300
      5 C4           1.3850     0.0120     2.3960 ca         1 EG7      -0.090000
      6 C3           0.3930    -6.4630    -5.7760 ca         1 EG7      -0.094000
      7 C2           1.3820     0.0000     0.0000 ca         1 EG7      -0.079000
      8 C8          -0.5870    -5.5270    -5.4680 ca         1 EG7       0.090600
      9 C9          -0.6930     0.0050     1.1980 ca         1 EG7       0.143900
     10 C10          0.0020     0.0110     2.3970 ca         1 EG7      -0.071600
     11 C11         -0.2400    -4.3910    -4.7630 ca         1 EG7       0.406600
     12 C12          4.7410    -1.9180    -2.6930 cd         1 EG7      -0.252600
     13 C13          1.9670    -5.0590    -4.6490 ca         1 EG7       0.430200
     14 C14          3.5790    -3.5790    -3.6200 cc         1 EG7       0.481200
     15 C15         -2.5530    -5.0820    -3.1390 c          1 EG7       0.988600
     16 C16         -0.8400    -3.7020    -1.9890 c3         1 EG7      -0.006400
     17 C17         -2.9920    -2.6750    -2.7240 c3         1 EG7      -0.002400
     18 C18         -0.2460    -2.2950    -1.8840 c3         1 EG7       0.117800
     19 C19         -2.3360    -1.2980    -2.5990 c3         1 EG7       0.116500
     20 C20         -1.9230    -3.7140    -3.0720 c3         1 EG7      -0.160000
     21 C22         -3.3980    -0.2590    -2.2310 c3         1 EG7      -0.011100
     22 C23         -0.7530    -0.0000    -1.3050 c3         1 EG7       0.187100
     23 C24         -1.2970    -3.3710    -4.4260 c3         1 EG7      -0.066700
     24 N25          1.0060    -4.1870    -4.3800 nb         1 EG7      -0.557000
     25 N26          2.7250    -2.6300    -3.3130 nd         1 EG7      -0.645800
     26 N27          3.4360    -1.5750    -2.7280 na         1 EG7       0.428400
     27 N28         -1.3080    -1.3390    -1.5500 n3         1 EG7      -0.525600
     28 N29          3.2680    -4.8030    -4.2260 nu         1 EG7      -0.401600
     29 F33         -2.0440     0.0060     1.1990 f          1 EG7      -0.114900
     30 Cl1         -0.8640     0.0250     3.9030 cl         1 EG7      -0.016400
     31 H40          5.7810    -3.7100    -3.3520 ha         1 EG7       0.129000
     32 H35          3.1570     0.0000     1.1960 ha         1 EG7       0.100000
     33 H39          2.4790    -6.9300    -5.5810 ha         1 EG7       0.096000
     34 H38          1.9280     0.0140     3.3330 ha         1 EG7       0.110000
     35 H37          0.1480    -7.3610    -6.3300 ha         1 EG7       0.108000
     36 H36          1.9240    -0.0080    -0.9380 ha         1 EG7       0.102000
     37 H41         -0.0580    -4.4040    -2.2530 hc         1 EG7       0.035700
     38 H42         -1.2770    -3.9800    -1.0390 hc         1 EG7       0.035700
     39 H44         -3.7390    -2.6490    -3.5090 hc         1 EG7       0.033200
     40 H43         -3.4590    -2.9390    -1.7830 hc         1 EG7       0.033200
     41 H45          0.2000    -2.0210    -2.8330 h1         1 EG7       0.019700
     42 H46          0.5080    -2.2800    -1.1070 h1         1 EG7       0.019700
     43 H47         -1.8760    -1.0320    -3.5430 h1         1 EG7       0.007700
     44 H49          5.6060    -0.0270    -2.2380 hc         1 EG7       0.003033
     45 H48          6.0270    -1.3190    -1.1050 hc         1 EG7       0.003033
     46 H50          6.7690    -1.2730    -2.7100 hc         1 EG7       0.003033
     47 H51         -3.6210    -0.3290    -1.1730 hc         1 EG7       0.003367
     48 H52         -3.0270     0.7330    -2.4560 hc         1 EG7       0.003367
     49 H53         -4.2990    -0.4450    -2.8030 hc         1 EG7       0.003367
     50 H55         -1.5600     0.7210    -1.2570 h1         1 EG7       0.017200
     51 H54         -0.0800     0.2640    -2.1110 h1         1 EG7       0.017200
     52 H57         -0.8480    -2.3870    -4.3770 hc         1 EG7       0.018700
     53 H56         -2.0650    -3.3800    -5.1900 hc         1 EG7       0.018700
     54 H58          3.0440    -0.7170    -2.3940 hn         1 EG7       0.141700
     55 H59          3.9860    -5.4840    -4.3760 hn         1 EG7       0.276800
     56 O30         -3.7360    -5.2120    -2.9360 o          1 EG7      -0.889300
     57 O31         -1.7980    -6.1550    -3.4240 o          1 EG7      -0.889300
     58 F32         -1.8670    -5.7260    -5.8560 f          1 EG7      -0.118900
     59 C21          5.8650    -1.0750    -2.1480 c3         1 EG7       0.102200
@<TRIPOS>BOND
     1     1     7 ar  
     2     1     9 ar  
     3     1    22 1   
     4     2    12 2   
     5     2    14 1   
     6     2    31 1   
     7     3     5 ar  
     8     3     7 ar  
     9     3    32 1   
    10     4     6 ar  
    11     4    13 ar  
    12     4    33 1   
    13     5    10 ar  
    14     5    34 1   
    15     6     8 ar  
    16     6    35 1   
    17     7    36 1   
    18     8    11 ar  
    19     8    58 1   
    20     9    10 ar  
    21     9    29 1   
    22    10    30 1   
    23    11    23 1   
    24    11    24 ar  
    25    12    26 1   
    26    12    59 1   
    27    13    24 ar  
    28    13    28 1   
    29    14    25 2   
    30    14    28 1   
    31    15    20 1   
    32    15    56 1   
    33    15    57 1   
    34    16    18 1   
    35    16    20 1   
    36    16    37 1   
    37    16    38 1   
    38    17    19 1   
    39    17    20 1   
    40    17    39 1   
    41    17    40 1   
    42    18    27 1   
    43    18    41 1   
    44    18    42 1   
    45    19    21 1   
    46    19    27 1   
    47    19    43 1   
    48    20    23 1   
    49    21    47 1   
    50    21    48 1   
    51    21    49 1   
    52    22    27 1   
    53    22    50 1   
    54    22    51 1   
    55    23    52 1   
    56    23    53 1   
    57    25    26 1   
    58    26    54 1   
    59    28    55 1   
    60    44    59 1   
    61    45    59 1   
    62    46    59 1   
@<TRIPOS>SUBSTRUCTURE
     1 EG7         1 TEMP              0 ****  ****    0 ROOT
