@<TRIPOS>MOLECULE
molecule
   43    45     1     0     0
SMALL
bcc


@<TRIPOS>ATOM
      1 N01          0.0000     0.0000     0.0000 nc         1 EG8      -0.690000
      2 C02          1.3040     0.0000     0.0000 cd         1 EG8       0.430400
      3 N03          1.7370     0.0000     1.2890 na         1 EG8      -0.215700
      4 C04          0.6210     0.0000     2.0870 cd         1 EG8      -0.240600
      5 C05         -0.4440     0.0000     1.2660 cc         1 EG8       0.311200
      6 N1'         11.3680    -4.0580    -6.3920 nb         1 EG8      -0.687000
      7 N11          4.0340    -0.0010     0.8180 nb         1 EG8      -0.764000
      8 C12          3.0650    -0.0000     1.7180 ca         1 EG8       0.793500
      9 N13          3.3230     0.0000     3.0160 nb         1 EG8      -0.757000
     10 C14          4.5700     0.0000     3.4580 ca         1 EG8       0.490200
     11 C15          5.6110    -0.0000     2.5420 ca         1 EG8      -0.397600
     12 C16          5.3030    -0.0010     1.1900 ca         1 EG8       0.497600
     13 C17          6.4010    -0.0020     0.1580 c3         1 EG8      -0.131700
     14 C18          6.2060    -1.1840    -0.7930 c3         1 EG8       0.161800
     15 N19          7.2770    -1.1850    -1.8000 n7         1 EG8      -0.823200
     16 C2'         10.3890    -4.0830    -5.5090 ca         1 EG8       0.422200
     17 C20          7.1210    -2.3090    -2.7330 c3         1 EG8       0.156800
     18 C21          8.2510    -2.2760    -3.7640 c3         1 EG8      -0.079400
     19 C22          8.0890    -3.4470    -4.7350 c3         1 EG8      -0.033100
     20 C3'          9.2030    -3.4150    -5.7500 ca         1 EG8      -0.207600
     21 C4'          9.0510    -2.7140    -6.9360 ca         1 EG8      -0.092000
     22 C5'         10.1020    -2.7120    -7.8410 ca         1 EG8      -0.251300
     23 C6'         11.2580    -3.4030    -7.5320 ca         1 EG8       0.415200
     24 H02          1.9360    -0.0000    -0.8800 h5         1 EG8       0.080100
     25 H04          0.6020     0.0010     3.1700 h4         1 EG8       0.191000
     26 H05         -1.4830     0.0000     1.5750 h4         1 EG8       0.045100
     27 H14          4.7760     0.0010     4.5210 h4         1 EG8       0.039100
     28 H15          6.6420    -0.0010     2.8750 ha         1 EG8       0.155000
     29 H17          6.3690     0.9230    -0.4040 hc         1 EG8       0.069700
     30 H17A         7.3610    -0.0910     0.6530 hc         1 EG8       0.069700
     31 H18          6.2380    -2.1090    -0.2310 h1         1 EG8       0.044700
     32 H18A         5.2460    -1.0950    -1.2870 h1         1 EG8       0.044700
     33 HN19         7.2570    -0.3240    -2.3090 hn         1 EG8       0.352800
     34 H20          7.1600    -3.2420    -2.1840 h1         1 EG8       0.034200
     35 H20A         6.1670    -2.2280    -3.2400 h1         1 EG8       0.034200
     36 H21          8.2120    -1.3430    -4.3130 hc         1 EG8       0.052700
     37 H21A         9.2050    -2.3570    -3.2560 hc         1 EG8       0.052700
     38 H22          8.1280    -4.3800    -4.1850 hc         1 EG8       0.050700
     39 H22A         7.1350    -3.3660    -5.2420 hc         1 EG8       0.050700
     40 H4'          8.1330    -2.1810    -7.1520 ha         1 EG8       0.137000
     41 H5'         10.0170    -2.1750    -8.7780 ha         1 EG8       0.138000
     42 H6'         12.0840    -3.4060    -8.2330 h4         1 EG8       0.023100
     43 H2'         10.5160    -4.6320    -4.5840 h4         1 EG8       0.024100
@<TRIPOS>BOND
     1     1     2 2
     2     1     5 1
     3     2     3 1
     4     3     4 1
     5     3     8 1
     6     4     5 2
     7     6    16 ar
     8     6    23 ar
     9     7     8 ar
    10     7    12 ar
    11     8     9 ar
    12     9    10 ar
    13    10    11 ar
    14    11    12 ar
    15    12    13 1
    16    13    14 1
    17    14    15 1
    18    15    17 1
    19    16    20 ar
    20    17    18 1
    21    18    19 1
    22    19    20 1
    23    20    21 ar
    24    21    22 ar
    25    22    23 ar
    26     2    24 1
    27     4    25 1
    28     5    26 1
    29    10    27 1
    30    11    28 1
    31    13    29 1
    32    13    30 1
    33    14    31 1
    34    14    32 1
    35    15    33 1
    36    16    43 1
    37    17    34 1
    38    17    35 1
    39    18    36 1
    40    18    37 1
    41    19    38 1
    42    19    39 1
    43    21    40 1
    44    22    41 1
    45    23    42 1
@<TRIPOS>SUBSTRUCTURE
     1 EG8         1 TEMP              0 ****  ****    0 ROOT
