@<TRIPOS>MOLECULE
EGB
   39    41     1     0     0
SMALL
bcc


@<TRIPOS>ATOM
      1 OAD          0.0000     0.0000     0.0000 oh         1 EGB      -0.493100
      2 CAR          1.3590     0.0000     0.0000 ca         1 EGB       0.125100
      3 CAI          2.0540     0.0000     1.2010 ca         1 EGB      -0.080000
      4 CAG          2.0530    -0.0060    -1.2020 ca         1 EGB      -0.138000
      5 CAF          3.4350    -0.0060    -1.1990 ca         1 EGB      -0.079000
      6 CAH          4.1250     0.0000    -0.0020 ca         1 EGB      -0.114000
      7 CAS          3.4350     0.0010     1.1960 ca         1 EGB      -0.120300
      8 CAT          4.1910     0.0010     2.5000 c3         1 EGB       0.133200
      9 CAQ          4.6510    -1.4020     2.8000 ce         1 EGB      -0.310400
     10 CAN          3.6700    -2.4020     2.9300 c          1 EGB       0.637300
     11 OAC          2.5000    -2.1120     2.7820 o          1 EGB      -0.565100
     12 CAJ          4.0420    -3.8250     3.2490 c3         1 EGB      -0.109400
     13 CAU          5.3480    -3.8300     4.0490 c3         1 EGB      -0.072000
     14 CAA          5.7900    -5.2730     4.3050 c3         1 EGB       0.001900
     15 CAB          5.1380    -3.1130     5.3830 c3         1 EGB       0.001900
     16 CAK          6.4190    -3.1010     3.2330 c3         1 EGB       0.022800
     17 CAP          5.9610    -1.6920     2.9410 c2         1 EGB      -0.084600
     18 NAL          6.9120    -0.7150     2.8230 ns         1 EGB       0.106900
     19 CAO          6.5800     0.5570     2.5610 cs         1 EGB       0.255400
     20 SAE          7.8170     1.7320     2.4260 s          1 EGB      -0.691400
     21 NAM          5.3040     0.9310     2.4010 ns         1 EGB      -0.016900
     22 HAD         -0.3140     0.8610    -0.2210 ho         1 EGB       0.401000
     23 HAI          1.5140     0.0000     2.1400 ha         1 EGB       0.133000
     24 HAG          1.5120    -0.0110    -2.1400 ha         1 EGB       0.114000
     25 HAF          3.9780    -0.0080    -2.1370 ha         1 EGB       0.106000
     26 HAH          5.2080     0.0010    -0.0020 ha         1 EGB       0.107000
     27 HAT          3.5310     0.3290     3.2940 h1         1 EGB       0.049700
     28 HAM          5.1090     1.8920     2.2050 hn         1 EGB       0.214500
     29 HAJ1         4.1800    -4.3770     2.3270 hc         1 EGB       0.047700
     30 HAJ2         3.2550    -4.2810     3.8370 hc         1 EGB       0.047700
     31 HAA1         6.7090    -5.2740     4.8780 hc         1 EGB       0.011700
     32 HAA2         5.0180    -5.7940     4.8590 hc         1 EGB       0.011700
     33 HAA3         5.9550    -5.7730     3.3580 hc         1 EGB       0.011700
     34 HAB1         4.7720    -2.1100     5.2000 hc         1 EGB       0.011700
     35 HAB2         4.4150    -3.6580     5.9770 hc         1 EGB       0.011700
     36 HAB3         6.0790    -3.0620     5.9180 hc         1 EGB       0.011700
     37 HAK1         7.2790    -3.0070     3.8850 hc         1 EGB       0.048200
     38 HAK2         6.4610    -3.6060     2.2760 hc         1 EGB       0.048200
     39 HAL          7.8770    -0.9550     2.9360 hn         1 EGB       0.203500
@<TRIPOS>BOND
     1     1     2 1   
     2     1    22 1   
     3     2     3 ar  
     4     2     4 ar  
     5     3     7 ar  
     6     3    23 1   
     7     4     5 ar  
     8     4    24 1   
     9     5     6 ar  
    10     5    25 1   
    11     6     7 ar  
    12     6    26 1   
    13     7     8 1   
    14     8     9 1   
    15     8    21 1   
    16     8    27 1   
    17     9    10 1   
    18     9    17 2   
    19    10    11 2   
    20    10    12 1   
    21    12    13 1   
    22    12    29 1   
    23    12    30 1   
    24    13    14 1   
    25    13    15 1   
    26    13    16 1   
    27    14    31 1   
    28    14    32 1   
    29    14    33 1   
    30    15    34 1   
    31    15    35 1   
    32    15    36 1   
    33    16    17 1   
    34    16    37 1   
    35    16    38 1   
    36    17    18 1   
    37    18    19 1   
    38    18    39 1   
    39    19    20 2   
    40    19    21 1   
    41    21    28 1   
@<TRIPOS>SUBSTRUCTURE
     1 EGB         1 TEMP              0 ****  ****    0 ROOT
