@<TRIPOS>MOLECULE
molecule
  100   100     1     0     0
SMALL
bcc


@<TRIPOS>ATOM
      1 O1           0.0000     0.0000     0.0000 oh         1 EGC      -0.594800
      2 C2           1.4220     0.0000     0.0000 c3         1 EGC       0.144400
      3 C3           1.9180     0.0000     1.4340 c3         1 EGC       0.136400
      4 O4           1.4180    -1.1520     2.0960 os         1 EGC      -0.383600
      5 C5           1.8530    -1.2050     3.4500 c3         1 EGC       0.136400
      6 C6           1.2700    -2.4400     4.1090 c3         1 EGC       0.137400
      7 O7           1.7040    -3.5920     3.4000 os         1 EGC      -0.393600
      8 C8           1.1850    -4.7840     3.9770 c3         1 EGC       0.135400
      9 C9           1.6610    -5.9740     3.1660 c3         1 EGC       0.137400
     10 O10          1.1780    -5.8510     1.8350 os         1 EGC      -0.379600
     11 C11          1.5970    -6.9440     1.0260 c3         1 EGC       0.136400
     12 C12          1.0320    -6.7690    -0.3710 c3         1 EGC       0.134400
     13 C14         -0.9720    -6.5950    -1.5860 c3         1 EGC       0.135400
     14 C15         -2.4820    -6.6130    -1.4480 c3         1 EGC       0.135400
     15 C17         -4.2960    -5.5170    -0.4330 c3         1 EGC       0.135400
     16 C18         -4.6600    -4.3790     0.5010 c3         1 EGC       0.137400
     17 C20         -4.3560    -3.5590     2.6830 c3         1 EGC       0.137400
     18 C21         -3.6950    -3.8620     4.0130 c3         1 EGC       0.135400
     19 C23         -3.6170    -5.4270     5.7650 c3         1 EGC       0.136400
     20 C24         -4.2140    -6.7320     6.2580 c3         1 EGC       0.136400
     21 C26         -4.5010    -8.9990     5.7090 c3         1 EGC       0.128400
     22 C27         -4.2210   -10.0340     4.6370 c3         1 EGC       0.145400
     23 C29         -2.3910   -10.4840     3.1860 ca         1 EGC       0.134100
     24 C30         -1.1690   -10.0170     2.7010 ca         1 EGC      -0.172500
     25 C31         -0.7360   -10.3910     1.4280 ca         1 EGC      -0.094000
     26 C32         -1.5410   -11.2180     0.6880 ca         1 EGC      -0.094300
     27 C33         -2.7460   -11.6980     1.1290 ca         1 EGC      -0.094000
     28 C34         -3.1790   -11.3250     2.4010 ca         1 EGC      -0.172500
     29 C35         -1.0620   -11.6320    -0.7170 c3         1 EGC      -0.014700
     30 C36         -0.8980   -10.3170    -1.5340 c3         1 EGC      -0.085100
     31 C37         -2.0870   -12.4790    -1.4990 c3         1 EGC      -0.085100
     32 C38          0.3420   -12.3390    -0.7060 c3         1 EGC      -0.050400
     33 C39          0.6290   -13.6210     0.1440 c3         1 EGC      -0.061000
     34 C40          2.1320   -13.9540    -0.0290 c3         1 EGC      -0.083433
     35 C41         -0.1580   -14.8410    -0.3720 c3         1 EGC      -0.083433
     36 C42          0.3630   -13.4470     1.6440 c3         1 EGC      -0.083433
     37 O13         -0.3870    -6.7560    -0.3000 os         1 EGC      -0.382600
     38 O16         -2.8820    -5.5610    -0.5810 os         1 EGC      -0.384600
     39 O19         -4.0640    -4.6110     1.7700 os         1 EGC      -0.381600
     40 O22         -4.2190    -5.0810     4.5230 os         1 EGC      -0.394600
     41 O25         -3.9800    -7.7440     5.2880 os         1 EGC      -0.386600
     42 O28         -2.8130   -10.1200     4.4290 os         1 EGC      -0.327900
     43 H1          -0.3140     0.0710    -0.8860 ho         1 EGC       0.398000
     44 H21          1.7850    -0.8850    -0.5090 h1         1 EGC       0.026700
     45 H22          1.7850     0.8850    -0.5090 h1         1 EGC       0.026700
     46 H31A         1.5650     0.8910     1.9390 h1         1 EGC       0.026700
     47 H32          3.0010    -0.0180     1.4430 h1         1 EGC       0.026700
     48 H51          2.9340    -1.2530     3.4820 h1         1 EGC       0.027200
     49 H52          1.5140    -0.3200     3.9740 h1         1 EGC       0.027200
     50 H61          0.1880    -2.3870     4.0870 h1         1 EGC       0.028700
     51 H62          1.6090    -2.4970     5.1360 h1         1 EGC       0.028700
     52 H81          1.5380    -4.8770     4.9970 h1         1 EGC       0.032200
     53 H82          0.1020    -4.7500     3.9690 h1         1 EGC       0.032200
     54 H91          1.2820    -6.8880     3.6060 h1         1 EGC       0.027700
     55 H92          2.7440    -5.9970     3.1580 h1         1 EGC       0.027700
     56 H111         2.6790    -6.9670     0.9790 h1         1 EGC       0.026700
     57 H112         1.2320    -7.8710     1.4510 h1         1 EGC       0.026700
     58 H121         1.3570    -7.5900    -0.9990 h1         1 EGC       0.028200
     59 H122         1.3820    -5.8330    -0.7890 h1         1 EGC       0.028200
     60 H141        -0.6570    -7.4060    -2.2320 h1         1 EGC       0.027200
     61 H142        -0.6580    -5.6500    -2.0110 h1         1 EGC       0.027200
     62 H151        -2.7970    -7.5640    -1.0340 h1         1 EGC       0.027700
     63 H152        -2.9370    -6.4730    -2.4210 h1         1 EGC       0.027700
     64 H171        -4.7580    -5.3550    -1.3990 h1         1 EGC       0.029200
     65 H172        -4.6470    -6.4540    -0.0160 h1         1 EGC       0.029200
     66 H181        -5.7370    -4.3290     0.6100 h1         1 EGC       0.027700
     67 H182        -4.2930    -3.4450     0.0940 h1         1 EGC       0.027700
     68 H201        -5.4280    -3.4840     2.8190 h1         1 EGC       0.029700
     69 H202        -3.9730    -2.6240     2.2920 h1         1 EGC       0.029700
     70 H211        -3.9000    -3.0590     4.7110 h1         1 EGC       0.032200
     71 H212        -2.6250    -3.9570     3.8740 h1         1 EGC       0.032200
     72 H231        -3.8070    -4.6450     6.4900 h1         1 EGC       0.029700
     73 H232        -2.5490    -5.5460     5.6300 h1         1 EGC       0.029700
     74 H241        -3.7490    -7.0120     7.1950 h1         1 EGC       0.027700
     75 H242        -5.2810    -6.6100     6.4050 h1         1 EGC       0.027700
     76 H261        -4.0240    -9.2970     6.6350 h1         1 EGC       0.031200
     77 H262        -5.5700    -8.9150     5.8620 h1         1 EGC       0.031200
     78 H271        -4.7070    -9.7420     3.7140 h1         1 EGC       0.045200
     79 H272        -4.6000   -10.9980     4.9560 h1         1 EGC       0.045200
     80 H30         -0.5570    -9.3650     3.3110 ha         1 EGC       0.135500
     81 H31          0.2100   -10.0380     1.0360 ha         1 EGC       0.137000
     82 H33         -3.3470   -12.3500     0.5070 ha         1 EGC       0.137000
     83 H34         -4.1270   -11.6870     2.7780 ha         1 EGC       0.135500
     84 H361        -1.7770    -9.6980    -1.4010 hc         1 EGC       0.035367
     85 H362        -0.0230    -9.7820    -1.1850 hc         1 EGC       0.035367
     86 H363        -0.7800   -10.5570    -2.5840 hc         1 EGC       0.035367
     87 H371        -2.3560   -13.3510    -0.9150 hc         1 EGC       0.035367
     88 H372        -2.9730   -11.8870    -1.6930 hc         1 EGC       0.035367
     89 H373        -1.6510   -12.7960    -2.4400 hc         1 EGC       0.035367
     90 H381         0.5690   -12.5930    -1.7340 hc         1 EGC       0.034200
     91 H382         1.0620   -11.5930    -0.3930 hc         1 EGC       0.034200
     92 H401         2.3480   -14.1140    -1.0780 hc         1 EGC       0.033700
     93 H402         2.7300   -13.1300     0.3410 hc         1 EGC       0.033700
     94 H403         2.3700   -14.8510     0.5290 hc         1 EGC       0.033700
     95 H411         0.3790   -15.7480    -0.1240 hc         1 EGC       0.033700
     96 H412        -1.1360   -14.8620     0.0920 hc         1 EGC       0.033700
     97 H413        -0.2690   -14.7700    -1.4470 hc         1 EGC       0.033700
     98 H421        -0.7030   -13.5060     1.8310 hc         1 EGC       0.033700
     99 H422         0.7330   -12.4820     1.9680 hc         1 EGC       0.033700
    100 H423         0.8690   -14.2310     2.1940 hc         1 EGC       0.033700
@<TRIPOS>BOND
     1     1     2 1
     2     1    43 1
     3     2     3 1
     4     2    44 1
     5     2    45 1
     6     3     4 1
     7     3    46 1
     8     3    47 1
     9     4     5 1
    10     5     6 1
    11     5    48 1
    12     5    49 1
    13     6     7 1
    14     6    50 1
    15     6    51 1
    16     7     8 1
    17     8     9 1
    18     8    52 1
    19     8    53 1
    20     9    10 1
    21     9    54 1
    22     9    55 1
    23    10    11 1
    24    11    12 1
    25    11    56 1
    26    11    57 1
    27    12    37 1
    28    12    58 1
    29    12    59 1
    30    13    14 1
    31    13    37 1
    32    13    60 1
    33    13    61 1
    34    14    38 1
    35    14    62 1
    36    14    63 1
    37    15    16 1
    38    15    38 1
    39    15    64 1
    40    15    65 1
    41    16    39 1
    42    16    66 1
    43    16    67 1
    44    17    18 1
    45    17    39 1
    46    17    68 1
    47    17    69 1
    48    18    40 1
    49    18    70 1
    50    18    71 1
    51    19    20 1
    52    19    40 1
    53    19    72 1
    54    19    73 1
    55    20    41 1
    56    20    74 1
    57    20    75 1
    58    21    22 1
    59    21    41 1
    60    21    76 1
    61    21    77 1
    62    22    42 1
    63    22    78 1
    64    22    79 1
    65    23    24 ar
    66    23    28 ar
    67    23    42 1
    68    24    25 ar
    69    24    80 1
    70    25    26 ar
    71    25    81 1
    72    26    27 ar
    73    26    29 1
    74    27    28 ar
    75    27    82 1
    76    28    83 1
    77    29    30 1
    78    29    31 1
    79    29    32 1
    80    30    84 1
    81    30    85 1
    82    30    86 1
    83    31    87 1
    84    31    88 1
    85    31    89 1
    86    32    33 1
    87    32    90 1
    88    32    91 1
    89    33    34 1
    90    33    35 1
    91    33    36 1
    92    34    92 1
    93    34    93 1
    94    34    94 1
    95    35    95 1
    96    35    96 1
    97    35    97 1
    98    36    98 1
    99    36    99 1
   100    36   100 1
@<TRIPOS>SUBSTRUCTURE
     1 EGC         1 TEMP              0 ****  ****    0 ROOT
