@<TRIPOS>MOLECULE
EGC
  100   100     1     0     0
SMALL
bcc


@<TRIPOS>ATOM
      1 O1          1.1640    0.7730   -0.1020 oh        1 EGC     -0.599800
      2 C2          2.1650   -0.0680    0.4290 c3        1 EGC      0.131400
      3 C3          2.0460   -0.1970    1.9440 c3        1 EGC      0.086400
      4 O4          0.8270   -0.8970    2.1890 os        1 EGC     -0.440600
      5 C5          0.5630   -1.0620    3.5800 c3        1 EGC      0.096400
      6 C6         -0.7500   -1.8300    3.6970 c3        1 EGC      0.129400
      7 O7         -0.5310   -3.2280    3.8100 os        1 EGC     -0.432600
      8 C8         -0.2460   -3.8540    2.5560 c3        1 EGC      0.108400
      9 C9          0.2610   -5.2520    2.8950 c3        1 EGC      0.123400
     10 O10         0.8430   -5.7580    1.6950 os        1 EGC     -0.432600
     11 C11         1.0190   -7.1710    1.7300 c3        1 EGC      0.092400
     12 C12         1.5440   -7.5920    0.3610 c3        1 EGC      0.128400
     13 C14         0.2740   -6.3830   -1.2550 c3        1 EGC      0.085400
     14 C15        -1.0910   -6.4760   -1.9280 c3        1 EGC      0.125400
     15 C17        -2.3770   -6.4330    0.0750 c3        1 EGC      0.118400
     16 C18        -3.6830   -5.8290    0.5800 c3        1 EGC      0.125400
     17 C20        -4.5160   -4.4920    2.3470 c3        1 EGC      0.093400
     18 C21        -4.0500   -3.7530    3.5970 c3        1 EGC      0.126400
     19 C23        -2.9050   -5.4780    4.7550 c3        1 EGC      0.110400
     20 C24        -3.0950   -6.4160    5.9410 c3        1 EGC      0.126400
     21 C26        -3.2230   -8.7480    6.3620 c3        1 EGC      0.112400
     22 C27        -3.3910  -10.0680    5.6170 c3        1 EGC      0.128400
     23 C29        -2.0910  -10.6830    3.7230 ca        1 EGC      0.111100
     24 C30        -1.0450  -10.1020    2.9910 ca        1 EGC     -0.159500
     25 C31        -0.9290  -10.3810    1.6340 ca        1 EGC     -0.113500
     26 C32        -1.8340  -11.2360    0.9840 ca        1 EGC     -0.074300
     27 C33        -2.8760  -11.7980    1.7330 ca        1 EGC     -0.113500
     28 C34        -3.0110  -11.5290    3.0940 ca        1 EGC     -0.159500
     29 C35        -1.6930  -11.4730   -0.4980 c3        1 EGC      0.002300
     30 C36        -1.8840  -10.1180   -1.1970 c3        1 EGC     -0.093600
     31 C37        -2.7630  -12.4080   -1.0430 c3        1 EGC     -0.093600
     32 C38        -0.2880  -11.9660   -0.8750 c3        1 EGC     -0.058400
     33 C39         0.1900  -13.3650   -0.4740 c3        1 EGC     -0.049000
     34 C40         1.7200  -13.3500   -0.5250 c3        1 EGC     -0.087433
     35 C41        -0.2910  -14.4180   -1.4640 c3        1 EGC     -0.087433
     36 C42        -0.2340  -13.7530    0.9300 c3        1 EGC     -0.087433
     37 O13         0.5020   -7.6340   -0.6010 os        1 EGC     -0.434600
     38 O16        -2.1080   -5.8200   -1.1870 os        1 EGC     -0.425600
     39 O19        -3.3550   -5.0280    1.7150 os        1 EGC     -0.434600
     40 O22        -4.0340   -4.6020    4.7350 os        1 EGC     -0.425600
     41 O25        -3.3270   -7.7130    5.3910 os        1 EGC     -0.425600
     42 O28        -2.1150  -10.4490    5.0890 os        1 EGC     -0.342900
     43 H1          0.3130    0.3940    0.1540 ho        1 EGC      0.413000
     44 H21         3.1360    0.4300    0.1670 h1        1 EGC      0.054200
     45 H22         2.1120   -1.0830   -0.0470 h1        1 EGC      0.054200
     46 H31A        2.0030    0.8150    2.4280 h1        1 EGC      0.039200
     47 H32         2.9090   -0.7790    2.3610 h1        1 EGC      0.039200
     48 H51         1.4010   -1.6320    4.0610 h1        1 EGC      0.041200
     49 H52         0.4690   -0.0530    4.0640 h1        1 EGC      0.041200
     50 H61        -1.2580   -1.5600    4.6620 h1        1 EGC      0.061700
     51 H62        -1.4190   -1.5990    2.8270 h1        1 EGC      0.061700
     52 H81        -1.1920   -3.9150    1.9530 h1        1 EGC      0.063200
     53 H82         0.5290   -3.2690    1.9940 h1        1 EGC      0.063200
     54 H91        -0.5900   -5.9030    3.2310 h1        1 EGC      0.042700
     55 H92         1.0430   -5.2160    3.6980 h1        1 EGC      0.042700
     56 H111        0.0390   -7.6780    1.9450 h1        1 EGC      0.042200
     57 H112        1.7620   -7.4360    2.5270 h1        1 EGC      0.042200
     58 H121        2.3730   -6.9140    0.0310 h1        1 EGC      0.057200
     59 H122        1.9090   -8.6540    0.4200 h1        1 EGC      0.057200
     60 H141        0.2980   -5.5400   -0.5140 h1        1 EGC      0.054200
     61 H142        1.0800   -6.2370   -2.0210 h1        1 EGC      0.054200
     62 H151       -1.0760   -5.9190   -2.9030 h1        1 EGC      0.059200
     63 H152       -1.3690   -7.5520   -2.1000 h1        1 EGC      0.059200
     64 H171       -2.4790   -7.5430   -0.0530 h1        1 EGC      0.053200
     65 H172       -1.5260   -6.2160    0.7790 h1        1 EGC      0.053200
     66 H181       -4.1610   -5.1880   -0.2070 h1        1 EGC      0.042700
     67 H182       -4.3930   -6.6420    0.8870 h1        1 EGC      0.042700
     68 H201       -5.2210   -5.3210    2.6200 h1        1 EGC      0.040200
     69 H202       -5.0250   -3.7820    1.6420 h1        1 EGC      0.040200
     70 H211       -3.0360   -3.2960    3.4300 h1        1 EGC      0.060200
     71 H212       -4.7980   -2.9590    3.8640 h1        1 EGC      0.060200
     72 H231       -1.9700   -4.8660    4.8730 h1        1 EGC      0.061200
     73 H232       -2.8560   -6.0550    3.7910 h1        1 EGC      0.061200
     74 H241       -3.9790   -6.1150    6.5630 h1        1 EGC      0.041200
     75 H242       -2.1730   -6.4270    6.5790 h1        1 EGC      0.041200
     76 H261       -2.2220   -8.7050    6.8680 h1        1 EGC      0.039700
     77 H262       -4.0380   -8.6330    7.1240 h1        1 EGC      0.039700
     78 H271       -3.6780  -10.8750    6.3430 h1        1 EGC      0.059200
     79 H272       -4.1660   -9.9700    4.8150 h1        1 EGC      0.059200
     80 H30        -0.3320   -9.4360    3.4970 ha        1 EGC      0.138500
     81 H31        -0.1190   -9.8990    1.0600 ha        1 EGC      0.137000
     82 H33        -3.6110  -12.4660    1.2610 ha        1 EGC      0.137000
     83 H34        -3.8310  -11.9790    3.6700 ha        1 EGC      0.138500
     84 H361       -1.0740   -9.4050   -0.9020 hc        1 EGC      0.039533
     85 H362       -1.8570  -10.2520   -2.3050 hc        1 EGC      0.039533
     86 H363       -2.8690   -9.6770   -0.9150 hc        1 EGC      0.039533
     87 H371       -3.7710  -11.9340   -0.9610 hc        1 EGC      0.039533
     88 H372       -2.5610  -12.6220   -2.1210 hc        1 EGC      0.039533
     89 H373       -2.7800  -13.3760   -0.4860 hc        1 EGC      0.039533
     90 H381        0.4430  -11.2230   -0.4500 hc        1 EGC      0.040200
     91 H382       -0.2050  -11.8960   -1.9950 hc        1 EGC      0.040200
     92 H401        2.1210  -14.3710   -0.3170 hc        1 EGC      0.034033
     93 H402        2.0710  -13.0280   -1.5340 hc        1 EGC      0.034033
     94 H403        2.1290  -12.6480    0.2390 hc        1 EGC      0.034033
     95 H411        0.1710  -15.4060   -1.2220 hc        1 EGC      0.034033
     96 H412        0.0010  -14.1370   -2.5040 hc        1 EGC      0.034033
     97 H413       -1.3990  -14.5340   -1.4260 hc        1 EGC      0.034033
     98 H421        0.2210  -14.7330    1.2110 hc        1 EGC      0.034033
     99 H422        0.1000  -12.9780    1.6620 hc        1 EGC      0.034033
    100 H423       -1.3450  -13.8440    0.9980 hc        1 EGC      0.034033
@<TRIPOS>BOND
     1    1    2 1   
     2    1   43 1   
     3    2    3 1   
     4    2   44 1   
     5    2   45 1   
     6    3    4 1   
     7    3   46 1   
     8    3   47 1   
     9    4    5 1   
    10    5    6 1   
    11    5   48 1   
    12    5   49 1   
    13    6    7 1   
    14    6   50 1   
    15    6   51 1   
    16    7    8 1   
    17    8    9 1   
    18    8   52 1   
    19    8   53 1   
    20    9   10 1   
    21    9   54 1   
    22    9   55 1   
    23   10   11 1   
    24   11   12 1   
    25   11   56 1   
    26   11   57 1   
    27   12   37 1   
    28   12   58 1   
    29   12   59 1   
    30   13   14 1   
    31   13   37 1   
    32   13   60 1   
    33   13   61 1   
    34   14   38 1   
    35   14   62 1   
    36   14   63 1   
    37   15   16 1   
    38   15   38 1   
    39   15   64 1   
    40   15   65 1   
    41   16   39 1   
    42   16   66 1   
    43   16   67 1   
    44   17   18 1   
    45   17   39 1   
    46   17   68 1   
    47   17   69 1   
    48   18   40 1   
    49   18   70 1   
    50   18   71 1   
    51   19   20 1   
    52   19   40 1   
    53   19   72 1   
    54   19   73 1   
    55   20   41 1   
    56   20   74 1   
    57   20   75 1   
    58   21   22 1   
    59   21   41 1   
    60   21   76 1   
    61   21   77 1   
    62   22   42 1   
    63   22   78 1   
    64   22   79 1   
    65   23   24 ar  
    66   23   28 ar  
    67   23   42 1   
    68   24   25 ar  
    69   24   80 1   
    70   25   26 ar  
    71   25   81 1   
    72   26   27 ar  
    73   26   29 1   
    74   27   28 ar  
    75   27   82 1   
    76   28   83 1   
    77   29   30 1   
    78   29   31 1   
    79   29   32 1   
    80   30   84 1   
    81   30   85 1   
    82   30   86 1   
    83   31   87 1   
    84   31   88 1   
    85   31   89 1   
    86   32   33 1   
    87   32   90 1   
    88   32   91 1   
    89   33   34 1   
    90   33   35 1   
    91   33   36 1   
    92   34   92 1   
    93   34   93 1   
    94   34   94 1   
    95   35   95 1   
    96   35   96 1   
    97   35   97 1   
    98   36   98 1   
    99   36   99 1   
   100   36  100 1   
@<TRIPOS>SUBSTRUCTURE
     1 EGC         1 TEMP              0 ****  ****    0 ROOT
