@<TRIPOS>MOLECULE
EGD
   16    15     1     0     0
SMALL
bcc


@<TRIPOS>ATOM
      1 CG           0.0000     0.0000     0.0000 c3         1 EGD       0.003900
      2 CD           1.5310     0.0000     0.0000 c3         1 EGD       0.164800
      3 NE           2.0190     0.0000     1.3810 nu         1 EGD      -0.489200
      4 CZ           3.3710    -0.0000     1.6320 c2         1 EGD       0.243100
      5 NH1          4.2180    -0.0000     0.6420 n2         1 EGD      -0.622100
      6 NH2          3.8290    -0.0000     2.9290 nz         1 EGD       0.197400
      7 HG1         -0.3610    -0.8840     0.5110 hc         1 EGD       0.025700
      8 HG2         -0.3610     0.8850     0.5110 hc         1 EGD       0.025700
      9 HG3         -0.3610    -0.0000    -1.0210 hc         1 EGD       0.025700
     10 HD1          1.8920     0.8850    -0.5110 h1         1 EGD       0.031700
     11 HD2          1.8920    -0.8850    -0.5110 h1         1 EGD       0.031700
     12 HNE          1.3680     0.0000     2.1420 hn         1 EGD       0.307800
     13 HH1          3.8860    -0.0000    -0.3020 hn         1 EGD       0.386400
     14 HH21         3.4960     0.8170     3.4010 hn         1 EGD       0.222800
     15 HH22         4.8300    -0.0000     2.9290 hn         1 EGD       0.222800
     16 HH23         3.4960    -0.8170     3.4010 hn         1 EGD       0.222800
@<TRIPOS>BOND
     1     1     2 1   
     2     1     7 1   
     3     1     8 1   
     4     1     9 1   
     5     2     3 1   
     6     2    10 1   
     7     2    11 1   
     8     3     4 1   
     9     3    12 1   
    10     4     5 2   
    11     4     6 1   
    12     5    13 1   
    13     6    14 1   
    14     6    15 1   
    15     6    16 1   
@<TRIPOS>SUBSTRUCTURE
     1 EGD         1 TEMP              0 ****  ****    0 ROOT
