@<TRIPOS>MOLECULE
molecule
   16    15     1     0     0
SMALL
bcc


@<TRIPOS>ATOM
      1 CG           0.0000     0.0000     0.0000 c3         1 EGD      -0.115100
      2 CD           1.5310     0.0000     0.0000 c3         1 EGD       0.241800
      3 NE           2.0190     0.0000     1.3810 nu         1 EGD      -0.854200
      4 CZ           3.3710    -0.0000     1.6320 c2         1 EGD       0.688100
      5 NH1          4.2180    -0.0000     0.6420 n2         1 EGD      -0.780100
      6 NH2          3.8290    -0.0000     2.9290 nz         1 EGD      -0.808600
      7 HG1         -0.3610    -0.0050    -1.0210 hc         1 EGD       0.060700
      8 HG2         -0.3610    -0.8820     0.5150 hc         1 EGD       0.060700
      9 HG3         -0.3610     0.8870     0.5060 hc         1 EGD       0.060700
     10 HD1          1.8920    -0.8850    -0.5110 h1         1 EGD       0.075200
     11 HD2          1.8920     0.8850    -0.5110 h1         1 EGD       0.075200
     12 HNE          1.3680     0.0100     2.1420 hn         1 EGD       0.454800
     13 HH1          5.2020    -0.0000     0.8240 hn         1 EGD       0.439400
     14 HH21         3.2300    -0.5680     3.4950 hn         1 EGD       0.467133
     15 HH22         3.8310     0.9360     3.2820 hn         1 EGD       0.467133
     16 HH23         4.7600    -0.3680     2.9540 hn         1 EGD       0.467133
@<TRIPOS>BOND
     1     1     2 1
     2     1     7 1
     3     1     8 1
     4     1     9 1
     5     2     3 1
     6     2    10 1
     7     2    11 1
     8     3     4 1
     9     3    12 1
    10     4     5 2
    11     4     6 1
    12     5    13 1
    13     6    14 1
    14     6    15 1
    15    16     6 1
@<TRIPOS>SUBSTRUCTURE
     1 EGD         1 TEMP              0 ****  ****    0 ROOT
