@<TRIPOS>MOLECULE
molecule
   51    54     1     0     0
SMALL
bcc


@<TRIPOS>ATOM
      1 O1           0.0000     0.0000     0.0000 os         1 EGG      -0.313900
      2 C2           1.4290     0.0000     0.0000 c3         1 EGG       0.206400
      3 C3           1.9120     0.0000     1.4550 c3         1 EGG       0.116100
      4 C4           1.4750     1.3140     2.1070 c3         1 EGG      -0.034100
      5 C5           0.0180     1.5670     1.8120 ca         1 EGG      -0.193300
      6 C6          -0.6720     2.4840     2.5960 ca         1 EGG       0.170100
      7 C7          -2.0110     2.7440     2.3520 ca         1 EGG      -0.260000
      8 C8          -2.6640     2.0860     1.3210 ca         1 EGG       0.163100
      9 C9          -1.9790     1.1700     0.5400 ca         1 EGG      -0.201000
     10 C10         -0.6350     0.9080     0.7860 ca         1 EGG       0.186100
     11 C11          1.9360    -1.2320    -0.7040 ca         1 EGG      -0.080300
     12 C12          3.0920    -1.1670    -1.4600 ca         1 EGG      -0.130000
     13 C13          3.5620    -2.2980    -2.1100 ca         1 EGG       0.091100
     14 C14          2.8700    -3.4980    -2.0010 ca         1 EGG       0.075100
     15 C15          1.7080    -3.5590    -1.2410 ca         1 EGG       0.091100
     16 C16          1.2480    -2.4250    -0.5900 ca         1 EGG      -0.130000
     17 O17          1.3210    -1.1200     2.1660 os         1 EGG      -0.406900
     18 C18          2.0390    -1.6500     3.1770 c          1 EGG       0.654700
     19 O18         -0.0310     3.1300     3.6060 oh         1 EGG      -0.505100
     20 C19          1.5020    -2.7890     3.9450 ca         1 EGG      -0.117600
     21 O19         -3.9780     2.3390     1.0770 oh         1 EGG      -0.517100
     22 C20          2.2450    -3.3400     4.9920 ca         1 EGG      -0.096000
     23 O20          4.6990    -2.2320    -2.8530 oh         1 EGG      -0.507600
     24 C21          1.7390    -4.4070     5.7100 ca         1 EGG       0.077100
     25 O21          3.3280    -4.6100    -2.6380 oh         1 EGG      -0.500100
     26 C22          0.4910    -4.9350     5.3900 ca         1 EGG       0.097100
     27 O22          1.0270    -4.7310    -1.1310 oh         1 EGG      -0.507600
     28 C23         -0.2510    -4.3870     4.3460 ca         1 EGG       0.077100
     29 O23          3.1280    -1.1890     3.4560 o          1 EGG      -0.549000
     30 C24          0.2470    -3.3170     3.6280 ca         1 EGG      -0.096000
     31 O24          2.4620    -4.9430     6.7300 oh         1 EGG      -0.506100
     32 O25         -0.0030    -5.9840     6.0970 oh         1 EGG      -0.500100
     33 O26         -1.4700    -4.9060     4.0360 oh         1 EGG      -0.506100
     34 H2           1.7910     0.8890    -0.5020 h1         1 EGG       0.070700
     35 H3           2.9930    -0.0750     1.4790 h1         1 EGG       0.088700
     36 H4           1.6050     1.2300     3.1790 hc         1 EGG       0.076700
     37 H4A          2.0610     2.1220     1.6870 hc         1 EGG       0.076700
     38 H7          -2.5450     3.4610     2.9630 ha         1 EGG       0.146000
     39 H9          -2.4910     0.6570    -0.2650 ha         1 EGG       0.157000
     40 H12          3.6310    -0.2310    -1.5440 ha         1 EGG       0.154500
     41 H16          0.3420    -2.4720     0.0030 ha         1 EGG       0.154500
     42 HO18        -0.2680     4.0420     3.5970 ho         1 EGG       0.425000
     43 HO19        -4.0560     3.1150     0.5480 ho         1 EGG       0.423000
     44 H20          3.2170    -2.9300     5.2420 ha         1 EGG       0.167000
     45 HO20         5.4500    -2.2620    -2.2830 ho         1 EGG       0.423500
     46 HO21         3.0370    -4.6010    -3.5340 ho         1 EGG       0.423000
     47 HO22         0.3620    -4.7710    -1.7980 ho         1 EGG       0.423500
     48 H24         -0.3310    -2.8920     2.8170 ha         1 EGG       0.167000
     49 HO24         3.1340    -5.5030     6.3790 ho         1 EGG       0.424500
     50 HO25        -0.4120    -5.6680     6.8860 ho         1 EGG       0.427000
     51 HO26        -2.1380    -4.4490     4.5190 ho         1 EGG       0.424500
@<TRIPOS>BOND
     1     1     2 1
     2     1    10 1
     3     2     3 1
     4     2    11 1
     5     3     4 1
     6     3    17 1
     7     4     5 1
     8     5     6 ar
     9     5    10 ar
    10     6     7 ar
    11     6    19 1
    12     7     8 ar
    13     8     9 ar
    14     8    21 1
    15     9    10 ar
    16    11    12 ar
    17    11    16 ar
    18    12    13 ar
    19    13    14 ar
    20    13    23 1
    21    14    15 ar
    22    14    25 1
    23    15    16 ar
    24    15    27 1
    25    17    18 1
    26    18    20 1
    27    18    29 2
    28    20    22 ar
    29    20    30 ar
    30    22    24 ar
    31    24    26 ar
    32    24    31 1
    33    26    28 ar
    34    26    32 1
    35    28    30 ar
    36    28    33 1
    37     2    34 1
    38     3    35 1
    39     4    36 1
    40     4    37 1
    41     7    38 1
    42     9    39 1
    43    12    40 1
    44    16    41 1
    45    19    42 1
    46    21    43 1
    47    22    44 1
    48    23    45 1
    49    25    46 1
    50    27    47 1
    51    30    48 1
    52    31    49 1
    53    32    50 1
    54    33    51 1
@<TRIPOS>SUBSTRUCTURE
     1 EGG         1 TEMP              0 ****  ****    0 ROOT
