@<TRIPOS>MOLECULE
EGG
   51    54     1     0     0
SMALL
bcc


@<TRIPOS>ATOM
      1 O1         -0.0340   -0.0490    0.0460 os        1 EGG     -0.304900
      2 C2          1.4050   -0.0800    0.0900 c3        1 EGG      0.195400
      3 C3          1.9360   -0.0250    1.5320 c3        1 EGG      0.126100
      4 C4          1.4660    1.2620    2.2030 c3        1 EGG     -0.035100
      5 C5          0.0660    1.5980    1.8510 ca        1 EGG     -0.203300
      6 C6         -0.6370    2.5800    2.5750 ca        1 EGG      0.192100
      7 C7         -1.9690    2.8970    2.2840 ca        1 EGG     -0.328000
      8 C8         -2.6110    2.2110    1.2430 ca        1 EGG      0.187100
      9 C9         -1.9490    1.2340    0.4890 ca        1 EGG     -0.212000
     10 C10        -0.6140    0.9450    0.8090 ca        1 EGG      0.189100
     11 C11         1.8380   -1.3070   -0.6540 ca        1 EGG     -0.055300
     12 C12         2.9430   -1.2160   -1.5090 ca        1 EGG     -0.158000
     13 C13         3.3640   -2.3510   -2.2070 ca        1 EGG      0.106100
     14 C14         2.6850   -3.5750   -2.0650 ca        1 EGG      0.027100
     15 C15         1.5720   -3.6470   -1.2050 ca        1 EGG      0.106100
     16 C16         1.1510   -2.5100   -0.4980 ca        1 EGG     -0.158000
     17 O17         1.4060   -1.1670    2.2270 os        1 EGG     -0.417900
     18 C18         2.1070   -1.6210    3.3140 c         1 EGG      0.656700
     19 O18         0.0550    3.2090    3.5830 oh        1 EGG     -0.493100
     20 C19         1.4890   -2.7790    3.9800 ca        1 EGG     -0.099600
     21 O19        -3.9170    2.4630    0.8980 oh        1 EGG     -0.490100
     22 C20         2.1530   -3.3210    5.0890 ca        1 EGG     -0.125000
     23 O20         4.4450   -2.3560   -3.0650 oh        1 EGG     -0.501100
     24 C21         1.5950   -4.4170    5.7480 ca        1 EGG      0.092600
     25 O21         3.0470   -4.7300   -2.7240 oh        1 EGG     -0.512100
     26 C22         0.3780   -4.9760    5.3100 ca        1 EGG      0.052100
     27 O22         0.8610   -4.8050   -1.0160 oh        1 EGG     -0.501100
     28 C23        -0.2740   -4.4170    4.1930 ca        1 EGG      0.092600
     29 O23         3.1530   -1.0430    3.6250 o         1 EGG     -0.550000
     30 C24         0.2840   -3.3170    3.5250 ca        1 EGG     -0.125000
     31 O24         2.1730   -5.0200    6.8470 oh        1 EGG     -0.499600
     32 O25        -0.2270   -6.0520    5.9160 oh        1 EGG     -0.508100
     33 O26        -1.4650   -4.9030    3.7150 oh        1 EGG     -0.499600
     34 H2          1.7820    0.8470   -0.4330 h1        1 EGG      0.064700
     35 H3          3.0600   -0.0760    1.5270 h1        1 EGG      0.088700
     36 H4          1.5640    1.1530    3.3170 hc        1 EGG      0.074200
     37 H4A         2.1430    2.1030    1.8920 hc        1 EGG      0.074200
     38 H7         -2.5010    3.6640    2.8610 ha        1 EGG      0.137000
     39 H9         -2.4610    0.7030   -0.3240 ha        1 EGG      0.171000
     40 H12         3.4770   -0.2650   -1.6370 ha        1 EGG      0.156000
     41 H16         0.2840   -2.5740    0.1780 ha        1 EGG      0.156000
     42 HO18       -0.5490    3.8270    4.0200 ho        1 EGG      0.422000
     43 HO19       -4.2590    3.1430    1.4960 ho        1 EGG      0.421000
     44 H20         3.1030   -2.8800    5.4290 ha        1 EGG      0.171500
     45 HO20        4.8040   -1.4580   -3.0940 ho        1 EGG      0.435500
     46 HO21        3.8050   -4.5210   -3.2910 ho        1 EGG      0.446000
     47 HO22        1.2570   -5.4950   -1.5720 ho        1 EGG      0.435500
     48 H24        -0.2330   -2.8920    2.6490 ha        1 EGG      0.171500
     49 HO24        3.0020   -4.5560    7.0370 ho        1 EGG      0.438000
     50 HO25        0.3420   -6.3410    6.6470 ho        1 EGG      0.451000
     51 HO26       -1.7110   -5.6760    4.2480 ho        1 EGG      0.438000
@<TRIPOS>BOND
     1    1    2 1   
     2    1   10 1   
     3    2    3 1   
     4    2   11 1   
     5    2   34 1   
     6    3    4 1   
     7    3   17 1   
     8    3   35 1   
     9    4    5 1   
    10    4   36 1   
    11    4   37 1   
    12    5    6 ar  
    13    5   10 ar  
    14    6    7 ar  
    15    6   19 1   
    16    7    8 ar  
    17    7   38 1   
    18    8    9 ar  
    19    8   21 1   
    20    9   10 ar  
    21    9   39 1   
    22   11   12 ar  
    23   11   16 ar  
    24   12   13 ar  
    25   12   40 1   
    26   13   14 ar  
    27   13   23 1   
    28   14   15 ar  
    29   14   25 1   
    30   15   16 ar  
    31   15   27 1   
    32   16   41 1   
    33   17   18 1   
    34   18   20 1   
    35   18   29 2   
    36   19   42 1   
    37   20   22 ar  
    38   20   30 ar  
    39   21   43 1   
    40   22   24 ar  
    41   22   44 1   
    42   23   45 1   
    43   24   26 ar  
    44   24   31 1   
    45   25   46 1   
    46   26   28 ar  
    47   26   32 1   
    48   27   47 1   
    49   28   30 ar  
    50   28   33 1   
    51   30   48 1   
    52   31   49 1   
    53   32   50 1   
    54   33   51 1   
@<TRIPOS>SUBSTRUCTURE
     1 EGG         1 TEMP              0 ****  ****    0 ROOT
