@<TRIPOS>MOLECULE
molecule
   61    65     1     0     0
SMALL
bcc


@<TRIPOS>ATOM
      1 C7           0.0000     0.0000     0.0000 ca         1 EGJ      -0.108000
      2 C6           2.0760     0.0000     1.1960 ca         1 EGJ      -0.106000
      3 C1           7.4200     7.4560     7.0600 ca         1 EGJ      -0.109000
      4 C5           6.0710     5.4730     6.9690 ca         1 EGJ      -0.041000
      5 C4           7.5420     7.4910     5.7040 ca         1 EGJ      -0.148000
      6 C3           1.3830     0.0000     0.0000 ca         1 EGJ      -0.144000
      7 C2           6.6900     6.4490     7.6900 ca         1 EGJ      -0.164000
      8 C8           7.0130     6.4810     3.5280 ca         1 EGJ      -0.320300
      9 C9           4.4260     2.7100     0.4310 cc         1 EGJ       0.405200
     10 C10          4.6030     2.9950    -0.8600 cd         1 EGJ      -0.238400
     11 C11          6.9230     6.4990     4.9290 ca         1 EGJ       0.032000
     12 C12          6.1780     5.4730     5.5700 ca         1 EGJ      -0.120300
     13 C13          1.3870    -0.0020     2.3950 ca         1 EGJ      -0.092300
     14 C14          0.0020     0.0090     2.3980 ca         1 EGJ       0.168900
     15 C15         -0.6910     0.0040     1.1970 ca         1 EGJ      -0.017600
     16 C16          5.5670     4.4870     4.7790 ca         1 EGJ       0.559600
     17 C17          6.3750     5.4690     2.8390 ca         1 EGJ       0.676200
     18 C18          5.7390     4.4880     0.7340 cd         1 EGJ       0.737300
     19 C19          3.0910     5.1340     5.9630 c          1 EGJ       0.889600
     20 C20          2.7720     3.7010     3.9620 c3         1 EGJ      -0.045400
     21 C21          2.4980     2.7420     6.2510 c3         1 EGJ      -0.043400
     22 C22          2.9140     2.2750     3.4220 c3         1 EGJ       0.146800
     23 C23          2.6480     1.3450     5.6440 c3         1 EGJ       0.165500
     24 C24          3.2840     3.7470     5.4050 c3         1 EGJ      -0.157000
     25 C25          4.1250     0.9450     5.6440 c3         1 EGJ      -0.148100
     26 C26          2.1430    -0.0030     3.6980 c3         1 EGJ       0.204100
     27 C27          4.7710     3.3860     5.4310 c3         1 EGJ      -0.142700
     28 N28          5.0460     3.5270     1.2640 nc         1 EGJ      -0.686000
     29 N29          5.6870     4.5220     3.4730 nb         1 EGJ      -0.714000
     30 N30          2.1430     1.3530     4.2650 n3         1 EGJ      -0.714600
     31 N31          6.4550     5.4370     1.4490 nu         1 EGJ      -0.847600
     32 F34         -0.6700     0.0080     3.5680 f          1 EGJ      -0.115900
     33 S35          5.6420     4.4130    -0.9710 ss         1 EGJ      -0.315300
     34 Cl1         -2.4270     0.0040     1.1980 cl         1 EGJ      -0.104400
     35 H43         -0.5420    -0.0020    -0.9380 ha         1 EGJ       0.140000
     36 H42          3.1590    -0.0040     1.1950 ha         1 EGJ       0.141000
     37 H37          7.9010     8.2190     7.6590 ha         1 EGJ       0.105000
     38 H41          5.5080     4.6970     7.4730 ha         1 EGJ       0.141000
     39 H40          8.1120     8.2800     5.2280 ha         1 EGJ       0.112000
     40 H39          1.9240    -0.0010    -0.9390 ha         1 EGJ       0.132000
     41 H38          6.6100     6.4460     8.7710 ha         1 EGJ       0.114000
     42 H44          7.5700     7.2450     3.0000 ha         1 EGJ       0.114000
     43 H47          3.3540     4.3780     3.3500 hc         1 EGJ       0.069700
     44 H48          1.7280     3.9920     3.9410 hc         1 EGJ       0.069700
     45 H50          2.8870     2.7400     7.2620 hc         1 EGJ       0.057700
     46 H49          1.4510     3.0210     6.2610 hc         1 EGJ       0.057700
     47 H51          2.5350     2.2360     2.4080 h1         1 EGJ       0.032700
     48 H52          3.9580     1.9880     3.4340 h1         1 EGJ       0.032700
     49 H53          2.0780     0.6360     6.2320 h1         1 EGJ       0.043700
     50 H54          4.5580     1.1620     4.6760 hc         1 EGJ       0.039033
     51 H55          4.2120    -0.1150     5.8490 hc         1 EGJ       0.039033
     52 H56          4.6510     1.5050     6.4090 hc         1 EGJ       0.039033
     53 H58          3.1640    -0.3210     3.5220 h1         1 EGJ       0.037700
     54 H57          1.6670    -0.6850     4.3910 h1         1 EGJ       0.037700
     55 H60          5.0950     3.2660     6.4570 hc         1 EGJ       0.054700
     56 H59          4.9270     2.4600     4.8920 hc         1 EGJ       0.054700
     57 H61          7.0450     6.0870     0.9670 hn         1 EGJ       0.457800
     58 O32          2.4020     5.3020     6.9410 o          1 EGJ      -0.834800
     59 H45          3.8220     1.8770     0.7700 h4         1 EGJ       0.038100
     60 O33          3.6860     6.1830     5.3730 o          1 EGJ      -0.834800
     61 H46          4.1810     2.4490    -1.6950 h4         1 EGJ       0.165000
@<TRIPOS>BOND
     1     9    28 1
     2     9    10 2
     3    28    18 2
     4    34    15 1
     5    10    33 1
     6    18    33 1
     7    18    31 1
     8    15     1 ar
     9    15    14 ar
    10     1     6 ar
    11    31    17 1
    12    32    14 1
    13    14    13 ar
    14     6     2 ar
    15    17     8 ar
    16    17    29 ar
    17     8    11 ar
    18    13     2 ar
    19    13    26 1
    20    29    16 ar
    21    11     5 ar
    22    11    12 ar
    23    26    30 1
    24    20    22 1
    25    20    24 1
    26    16    12 ar
    27    16    27 1
    28    22    30 1
    29     5     3 ar
    30    12     4 ar
    31    27    24 1
    32    30    23 1
    33    24    21 1
    34    24    19 1
    35    58    19 1
    36     3     7 ar
    37    21    23 1
    38    19    60 1
    39     4     7 ar
    40    23    25 1
    41     1    35 1
    42     2    36 1
    43     3    37 1
    44     4    38 1
    45     5    39 1
    46     6    40 1
    47     7    41 1
    48     8    42 1
    49     9    59 1
    50    10    61 1
    51    20    43 1
    52    20    44 1
    53    21    45 1
    54    21    46 1
    55    22    47 1
    56    22    48 1
    57    23    49 1
    58    25    50 1
    59    25    51 1
    60    25    52 1
    61    26    53 1
    62    26    54 1
    63    27    55 1
    64    27    56 1
    65    31    57 1
@<TRIPOS>SUBSTRUCTURE
     1 EGJ         1 TEMP              0 ****  ****    0 ROOT
