@<TRIPOS>MOLECULE
molecule
   10     9     1     0     0
SMALL
bcc


@<TRIPOS>ATOM
      1 C1           0.0000     0.0000     0.0000 c3         1 EGL       0.144400
      2 O1           1.4280     0.0000     0.0000 oh         1 EGL      -0.595800
      3 C2          -0.5110     0.0000     1.4400 c3         1 EGL       0.144400
      4 O2          -0.0350     1.1650     2.1150 oh         1 EGL      -0.595800
      5 H11         -0.3610    -0.8840    -0.5110 h1         1 EGL       0.026450
      6 H12         -0.3610     0.8840    -0.5110 h1         1 EGL       0.026450
      7 HO1          1.7430    -0.0980    -0.8840 ho         1 EGL       0.399000
      8 H21         -0.1510    -0.8850     1.9510 h1         1 EGL       0.026450
      9 H22         -1.5940     0.0000     1.4390 h1         1 EGL       0.026450
     10 HO2         -0.4280     1.2150     2.9710 ho         1 EGL       0.399000
@<TRIPOS>BOND
     1     1     2 1
     2     1     3 1
     3     1     5 1
     4     1     6 1
     5     2     7 1
     6     3     4 1
     7     3     8 1
     8     3     9 1
     9     4    10 1
@<TRIPOS>SUBSTRUCTURE
     1 EGL         1 TEMP              0 ****  ****    0 ROOT
