@<TRIPOS>MOLECULE
EGL
   10     9     1     0     0
SMALL
bcc


@<TRIPOS>ATOM
      1 C1         -0.0170   -0.0150    0.0730 c3        1 EGL      0.109400
      2 O1          1.3720   -0.0940    0.3540 oh        1 EGL     -0.605800
      3 C2         -0.7290    0.0140    1.4220 c3        1 EGL      0.109400
      4 O2         -0.3980    1.1720    2.1580 oh        1 EGL     -0.605800
      5 H11        -0.3410   -0.9100   -0.5200 h1        1 EGL      0.042950
      6 H12        -0.2390    0.9200   -0.5060 h1        1 EGL      0.042950
      7 HO1         1.8330   -0.0350   -0.4900 ho        1 EGL      0.410000
      8 H21        -1.8390    0.0700    1.2680 h1        1 EGL      0.042950
      9 H22        -0.4680   -0.9050    2.0110 h1        1 EGL      0.042950
     10 HO2         0.5650    1.1850    2.2430 ho        1 EGL      0.410000
@<TRIPOS>BOND
     1    1    2 1   
     2    1    3 1   
     3    1    5 1   
     4    1    6 1   
     5    2    7 1   
     6    3    4 1   
     7    3    8 1   
     8    3    9 1   
     9    4   10 1   
@<TRIPOS>SUBSTRUCTURE
     1 EGL         1 TEMP              0 ****  ****    0 ROOT
