@<TRIPOS>MOLECULE
molecule
   20    20     1     0     0
SMALL
bcc


@<TRIPOS>ATOM
      1 O2           0.0000     0.0000     0.0000 o          1 EGM      -0.839800
      2 C7           1.2140     0.0000     0.0000 c          1 EGM       0.883200
      3 O1           1.8880     0.0000     1.1670 o          1 EGM      -0.839800
      4 C5           1.9530    -0.0070    -1.2790 ca         1 EGM      -0.104600
      5 C6           1.2590    -0.0120    -2.4890 ca         1 EGM      -0.100000
      6 C1           1.9550    -0.0190    -3.6810 ca         1 EGM      -0.158500
      7 C2           3.3380    -0.0190    -3.6760 ca         1 EGM      -0.114300
      8 C8           4.0930    -0.0260    -4.9810 c3         1 EGM      -0.030100
      9 C9           4.3480     1.4150    -5.4290 c3         1 EGM      -0.086100
     10 C3           4.0330    -0.0130    -2.4800 ca         1 EGM      -0.158500
     11 C4           3.3490    -0.0020    -1.2820 ca         1 EGM      -0.100000
     12 H2           0.1760    -0.0120    -2.4940 ha         1 EGM       0.147500
     13 H3           1.4170    -0.0240    -4.6210 ha         1 EGM       0.103500
     14 H4           5.0390    -0.5360    -4.8490 hc         1 EGM       0.032200
     15 H5           3.5080    -0.5400    -5.7340 hc         1 EGM       0.032200
     16 H6           4.8900     1.4100    -6.3680 hc         1 EGM       0.027367
     17 H7           3.4010     1.9250    -5.5610 hc         1 EGM       0.027367
     18 H8           4.9330     1.9290    -4.6770 hc         1 EGM       0.027367
     19 H9           5.1160    -0.0120    -2.4840 ha         1 EGM       0.103500
     20 H10          3.8940     0.0030    -0.3450 ha         1 EGM       0.147500
@<TRIPOS>BOND
     1     9     8 1
     2     8     7 1
     3    10    11 ar
     4    10     7 ar
     5    11     4 ar
     6     7     6 ar
     7     1     2 1
     8     4     5 ar
     9     4     2 1
    10     6     5 ar
    11     2     3 1
    12     5    12 1
    13     6    13 1
    14     8    14 1
    15     8    15 1
    16     9    16 1
    17     9    17 1
    18     9    18 1
    19    10    19 1
    20    11    20 1
@<TRIPOS>SUBSTRUCTURE
     1 EGM         1 TEMP              0 ****  ****    0 ROOT
