@<TRIPOS>MOLECULE
EGM
   20    20     1     0     0
SMALL
bcc


@<TRIPOS>ATOM
      1 O2         -0.0680   -0.0390    0.0310 o         1 EGM     -0.833300
      2 C7          1.1960   -0.0280    0.0710 c         1 EGM      0.906200
      3 O1          1.8700   -0.0240    1.1400 o         1 EGM     -0.833300
      4 C5          1.9510   -0.0200   -1.2490 ca        1 EGM     -0.122600
      5 C6          1.2580   -0.0250   -2.4640 ca        1 EGM     -0.108500
      6 C1          1.9490   -0.0180   -3.6740 ca        1 EGM     -0.157000
      7 C2          3.3480   -0.0040   -3.6900 ca        1 EGM     -0.117300
      8 C8          4.0880    0.0010   -4.9810 c3        1 EGM     -0.023100
      9 C9          4.3690    1.4030   -5.4670 c3        1 EGM     -0.086100
     10 C3          4.0430    0.0000   -2.4750 ca        1 EGM     -0.157000
     11 C4          3.3490   -0.0070   -1.2670 ca        1 EGM     -0.108500
     12 H2          0.1570   -0.0360   -2.4350 ha        1 EGM      0.149000
     13 H3          1.3950   -0.0230   -4.6230 ha        1 EGM      0.103000
     14 H4          3.4910   -0.5470   -5.7600 hc        1 EGM      0.029200
     15 H5          5.0590   -0.5510   -4.8610 hc        1 EGM      0.029200
     16 H6          3.4150    1.9620   -5.6200 hc        1 EGM      0.026367
     17 H7          4.9250    1.3750   -6.4350 hc        1 EGM      0.026367
     18 H8          4.9840    1.9590   -4.7190 hc        1 EGM      0.026367
     19 H9          5.1420    0.0090   -2.4780 ha        1 EGM      0.103000
     20 H10         3.8830   -0.0040   -0.3020 ha        1 EGM      0.149000
@<TRIPOS>BOND
     1    1    2 1   
     2    2    3 1   
     3    2    4 1   
     4    4    5 ar  
     5    4   11 ar  
     6    5    6 ar  
     7    5   12 1   
     8    6    7 ar  
     9    6   13 1   
    10    7    8 1   
    11    7   10 ar  
    12    8    9 1   
    13    8   14 1   
    14    8   15 1   
    15    9   16 1   
    16    9   17 1   
    17    9   18 1   
    18   10   11 ar  
    19   10   19 1   
    20   11   20 1   
@<TRIPOS>SUBSTRUCTURE
     1 EGM         1 TEMP              0 ****  ****    0 ROOT
