@<TRIPOS>MOLECULE
EGP
   80    85     1     0     0
SMALL
bcc


@<TRIPOS>ATOM
      1 N            0.0000     0.0000     0.0000 na         1 EGP       0.414600
      2 CA          -0.8420    -0.0010    -1.1990 c3         1 EGP      -0.038700
      3 C           -1.2320     1.4150    -1.5390 c          1 EGP       0.499100
      4 O           -0.8440     2.3330    -0.8470 o          1 EGP      -0.711100
      5 CAD         -7.8710     6.6790     8.2530 ca         1 EGP      -0.083000
      6 CAE         -7.6540     6.2340     6.9570 ca         1 EGP      -0.127000
      7 CAF         -0.7710    -0.0040     4.0590 ca         1 EGP      -0.102000
      8 CAG         -7.7470     5.8180     9.3220 ca         1 EGP      -0.101000
      9 CAH         -7.3130     4.9330     6.7170 ca         1 EGP      -0.045000
     10 CAI          0.4860    -0.0020     3.5280 ca         1 EGP      -0.033000
     11 CAJ         -6.8830     2.3040     9.1940 cc         1 EGP      -0.256100
     12 CAK         -1.7420     0.0060     1.8510 ca         1 EGP      -0.108000
     13 CAL          1.3700     0.0000     0.0000 cc         1 EGP      -0.244100
     14 CAM         -5.0340     1.8130     6.3970 c3         1 EGP       0.017000
     15 CAN         -3.7170     3.6410    -2.7770 c3         1 EGP       0.199400
     16 CAO         -3.9730     1.3640    -3.4890 c3         1 EGP       0.199400
     17 CAP         -6.5180     1.6910     6.7500 c3         1 EGP       0.061800
     18 CAQ         -2.2020     3.4830    -2.6050 c3         1 EGP      -0.019500
     19 CAR         -2.4710     1.0880    -3.3530 c3         1 EGP      -0.019500
     20 CAS          4.0050    -3.6770     1.3320 c3         1 EGP       0.154800
     21 CAT          5.3390    -2.7920     3.1480 c3         1 EGP       0.154800
     22 CAU          3.6600    -2.2520     0.8910 c3         1 EGP       0.149300
     23 CAV          4.9930    -1.3670     2.7070 c3         1 EGP       0.149300
     24 CAX          3.2720     0.0010     1.6910 c3         1 EGP       0.250000
     25 CBE         -1.8900     0.0110     3.2270 ca         1 EGP      -0.109400
     26 CBF         -6.8410     2.6230     7.8910 cd         1 EGP      -0.156400
     27 CBG          1.8270     0.0000     1.2620 cd         1 EGP      -0.139400
     28 CBH         -7.4070     4.4880     9.1000 ca         1 EGP      -0.224200
     29 CBI         -7.1830     4.0430     7.7850 ca         1 EGP      -0.090800
     30 CBJ          0.6550    -0.0010     2.1420 ca         1 EGP      -0.063800
     31 CBK         -0.4670     0.0050     1.2950 ca         1 EGP      -0.196200
     32 NAY         -4.7190     0.9080     5.2890 ns         1 EGP      -0.069900
     33 NAZ         -3.1730     0.0120     3.7880 ns         1 EGP       0.084900
     34 NBA         -7.2100     3.4090     9.9330 na         1 EGP       0.358600
     35 NBL          5.3250    -3.6810     1.9780 n3         1 EGP      -0.550600
     36 NBM          3.6730    -1.3630     2.0610 n3         1 EGP      -0.541600
     37 NBN         -1.9050     2.0560    -2.4000 n          1 EGP      -0.032800
     38 OBB         -4.1710     2.7460    -3.7940 os         1 EGP      -0.403600
     39 SAC         -2.2330     1.8240     5.4880 s          1 EGP      -0.711400
     40 H1          -1.7350    -0.5860    -1.0140 h1         1 EGP       0.038700
     41 H2          -0.2920    -0.4330    -2.0270 h1         1 EGP       0.038700
     42 H3           5.0190    -5.4470     3.0630 h1         1 EGP      -0.000967
     43 H4           6.7150    -5.0230     2.7900 h1         1 EGP      -0.000967
     44 H5           5.7400    -5.6690     1.4630 h1         1 EGP      -0.000967
     45 H7          -7.7560     6.9240     6.1280 ha         1 EGP       0.103000
     46 H8          -0.9010     0.0010     5.1350 ha         1 EGP       0.158000
     47 H9          -7.9190     6.1740    10.3300 ha         1 EGP       0.099000
     48 H10         -7.1450     4.5930     5.7020 ha         1 EGP       0.100000
     49 H11          1.3510    -0.0140     4.1800 ha         1 EGP       0.110000
     50 H12         -6.6870     1.3190     9.6000 h4         1 EGP       0.140000
     51 H13         -2.6150     0.0170     1.2100 ha         1 EGP       0.094000
     52 H14          1.9920     0.0010    -0.8870 h4         1 EGP       0.139000
     53 H15         -4.8150     2.8330     6.1040 h1         1 EGP       0.057700
     54 H16         -4.4340     1.5490     7.2600 h1         1 EGP       0.057700
     55 H17         -4.2130     3.4070    -1.8430 h1         1 EGP       0.016200
     56 H18         -3.9430     4.6600    -3.0670 h1         1 EGP       0.016200
     57 H19         -4.4690     1.1260    -2.5550 h1         1 EGP       0.016200
     58 H20         -4.3800     0.7560    -4.2870 h1         1 EGP       0.016200
     59 H21         -7.1170     1.9550     5.8870 hc         1 EGP       0.012200
     60 H22         -6.7360     0.6710     7.0440 hc         1 EGP       0.012200
     61 H23         -1.8720     4.0510    -1.7440 h1         1 EGP       0.042450
     62 H24         -1.6960     3.8350    -3.4960 h1         1 EGP       0.042450
     63 H25         -2.3180     0.0810    -2.9830 h1         1 EGP       0.042450
     64 H26         -1.9910     1.2050    -4.3170 h1         1 EGP       0.042450
     65 H27          3.2590    -4.0270     2.0350 h1         1 EGP       0.012450
     66 H28          4.0260    -4.3270     0.4660 h1         1 EGP       0.012450
     67 H29          6.3250    -2.8010     3.5960 h1         1 EGP       0.012450
     68 H30          4.6050    -3.1340     3.8690 h1         1 EGP       0.012450
     69 H31          2.6740    -2.2430     0.4430 h1         1 EGP       0.014450
     70 H32          4.3940    -1.9110     0.1710 h1         1 EGP       0.014450
     71 H33          4.9720    -0.7170     3.5730 h1         1 EGP       0.014450
     72 H34          5.7390    -1.0170     2.0030 h1         1 EGP       0.014450
     73 H35          3.8920     0.3500     0.8740 h1         1 EGP       0.011200
     74 H36          3.3960     0.6570     2.5440 h1         1 EGP       0.011200
     75 H37         -5.4360     0.3340     4.8920 hn         1 EGP       0.153500
     76 H38         -3.8670    -0.6240     3.4490 hn         1 EGP       0.143500
     77 H39         -7.3040     3.4270    10.9290 hn         1 EGP       0.114700
     78 CAA          5.7260    -5.0450     2.3480 c3         1 EGP       0.189100
     79 CBC         -3.4620     0.8460     4.8070 cs         1 EGP       0.260400
     80 H6          -8.1420     7.7140     8.4270 ha         1 EGP       0.101000
@<TRIPOS>BOND
     1     1     2 1   
     2     1    13 1   
     3     1    31 1   
     4     2     3 1   
     5     2    40 1   
     6     2    41 1   
     7     3     4 2   
     8     3    37 1   
     9     5     6 ar  
    10     5     8 ar  
    11     5    80 1   
    12     6     9 ar  
    13     6    45 1   
    14     7    10 ar  
    15     7    25 ar  
    16     7    46 1   
    17     8    28 ar  
    18     8    47 1   
    19     9    29 ar  
    20     9    48 1   
    21    10    30 ar  
    22    10    49 1   
    23    11    26 2   
    24    11    34 1   
    25    11    50 1   
    26    12    25 ar  
    27    12    31 ar  
    28    12    51 1   
    29    13    27 2   
    30    13    52 1   
    31    14    17 1   
    32    14    32 1   
    33    14    53 1   
    34    14    54 1   
    35    15    18 1   
    36    15    38 1   
    37    15    55 1   
    38    15    56 1   
    39    16    19 1   
    40    16    38 1   
    41    16    57 1   
    42    16    58 1   
    43    17    26 1   
    44    17    59 1   
    45    17    60 1   
    46    18    37 1   
    47    18    61 1   
    48    18    62 1   
    49    19    37 1   
    50    19    63 1   
    51    19    64 1   
    52    20    22 1   
    53    20    35 1   
    54    20    65 1   
    55    20    66 1   
    56    21    23 1   
    57    21    35 1   
    58    21    67 1   
    59    21    68 1   
    60    22    36 1   
    61    22    69 1   
    62    22    70 1   
    63    23    36 1   
    64    23    71 1   
    65    23    72 1   
    66    24    27 1   
    67    24    36 1   
    68    24    73 1   
    69    24    74 1   
    70    25    33 1   
    71    26    29 1   
    72    27    30 1   
    73    28    29 ar  
    74    28    34 1   
    75    30    31 ar  
    76    32    75 1   
    77    32    79 1   
    78    33    76 1   
    79    33    79 1   
    80    34    77 1   
    81    35    78 1   
    82    39    79 2   
    83    42    78 1   
    84    43    78 1   
    85    44    78 1   
@<TRIPOS>SUBSTRUCTURE
     1 EGP         1 TEMP              0 ****  ****    0 ROOT
