@<TRIPOS>MOLECULE
molecule
   80    85     1     0     0
SMALL
bcc


@<TRIPOS>ATOM
      1 N            0.0000     0.0000     0.0000 na         1 EGP      -0.059400
      2 CA          -0.8420    -0.0010    -1.1990 c3         1 EGP       0.038300
      3 C           -1.2320     1.4150    -1.5390 c          1 EGP       0.594100
      4 O           -0.8440     2.3330    -0.8470 o          1 EGP      -0.642100
      5 CAD         -7.8710     6.6790     8.2530 ca         1 EGP      -0.106000
      6 CAE         -7.6540     6.2340     6.9570 ca         1 EGP      -0.153000
      7 CAF         -0.7710    -0.0040     4.0590 ca         1 EGP      -0.116000
      8 CAG         -7.7470     5.8180     9.3220 ca         1 EGP      -0.142000
      9 CAH         -7.3130     4.9330     6.7170 ca         1 EGP      -0.079000
     10 CAI          0.4860    -0.0020     3.5280 ca         1 EGP      -0.070000
     11 CAJ         -6.8830     2.3040     9.1940 cc         1 EGP      -0.087100
     12 CAK         -1.7420     0.0060     1.8510 ca         1 EGP      -0.157000
     13 CAL          1.3700     0.0000     0.0000 cc         1 EGP      -0.089100
     14 CAM         -5.0340     1.8130     6.3970 c3         1 EGP       0.115000
     15 CAN         -3.7170     3.6410    -2.7770 c3         1 EGP       0.120900
     16 CAO         -3.9730     1.3640    -3.4890 c3         1 EGP       0.120900
     17 CAP         -6.5180     1.6910     6.7500 c3         1 EGP      -0.021200
     18 CAQ         -2.2020     3.4830    -2.6050 c3         1 EGP       0.053000
     19 CAR         -2.4710     1.0880    -3.3530 c3         1 EGP       0.053000
     20 CAS          4.0050    -3.6770     1.3320 c3         1 EGP       0.163800
     21 CAT          5.3390    -2.7920     3.1480 c3         1 EGP       0.163800
     22 CAU          3.6600    -2.2520     0.8910 c3         1 EGP       0.163300
     23 CAV          4.9930    -1.3670     2.7070 c3         1 EGP       0.163300
     24 CAX          3.2720     0.0010     1.6910 c3         1 EGP       0.240000
     25 CBE         -1.8900     0.0110     3.2270 ca         1 EGP       0.059600
     26 CBF         -6.8410     2.6230     7.8910 cd         1 EGP      -0.160400
     27 CBG          1.8270     0.0000     1.2620 cd         1 EGP      -0.136400
     28 CBH         -7.4070     4.4880     9.1000 ca         1 EGP      -0.036200
     29 CBI         -7.1830     4.0430     7.7850 ca         1 EGP      -0.095800
     30 CBJ          0.6550    -0.0010     2.1420 ca         1 EGP      -0.072800
     31 CBK         -0.4670     0.0050     1.2950 ca         1 EGP      -0.021200
     32 NAY         -4.7190     0.9080     5.2890 ns         1 EGP      -0.524900
     33 NAZ         -3.1730     0.0120     3.7880 ns         1 EGP      -0.424100
     34 NBA         -7.2100     3.4090     9.9330 na         1 EGP      -0.180400
     35 NBL          5.3250    -3.6810     1.9780 n3         1 EGP      -0.735600
     36 NBM          3.6730    -1.3630     2.0610 n3         1 EGP      -0.728600
     37 NBN         -1.9050     2.0560    -2.4000 n          1 EGP      -0.436800
     38 OBB         -4.1710     2.7460    -3.7940 os         1 EGP      -0.418600
     39 SAC         -2.2330     1.8240     5.4880 s          1 EGP      -0.680400
     40 H1          -1.7350    -0.5860    -1.0140 h1         1 EGP       0.073700
     41 H2          -0.2920    -0.4330    -2.0270 h1         1 EGP       0.073700
     42 H3           5.0190    -5.4470     3.0630 h1         1 EGP       0.030700
     43 H4           6.7150    -5.0230     2.7900 h1         1 EGP       0.030700
     44 H5           5.7400    -5.6690     1.4630 h1         1 EGP       0.030700
     45 H7          -7.7560     6.9240     6.1280 ha         1 EGP       0.130000
     46 H8          -0.9010     0.0010     5.1350 ha         1 EGP       0.172000
     47 H9          -7.9190     6.1740    10.3300 ha         1 EGP       0.126000
     48 H10         -7.1450     4.5930     5.7020 ha         1 EGP       0.129000
     49 H11          1.3510    -0.0140     4.1800 ha         1 EGP       0.142000
     50 H12         -6.6870     1.3190     9.6000 h4         1 EGP       0.166000
     51 H13         -2.6150     0.0170     1.2100 ha         1 EGP       0.119000
     52 H14          1.9920     0.0010    -0.8870 h4         1 EGP       0.163000
     53 H15         -4.8150     2.8330     6.1040 h1         1 EGP       0.079200
     54 H16         -4.4340     1.5490     7.2600 h1         1 EGP       0.079200
     55 H17         -4.2130     3.4070    -1.8430 h1         1 EGP       0.055450
     56 H18         -3.9430     4.6600    -3.0670 h1         1 EGP       0.055450
     57 H19         -4.4690     1.1260    -2.5550 h1         1 EGP       0.055450
     58 H20         -4.3800     0.7560    -4.2870 h1         1 EGP       0.055450
     59 H21         -7.1170     1.9550     5.8870 hc         1 EGP       0.046200
     60 H22         -6.7360     0.6710     7.0440 hc         1 EGP       0.046200
     61 H23         -1.8720     4.0510    -1.7440 h1         1 EGP       0.065700
     62 H24         -1.6960     3.8350    -3.4960 h1         1 EGP       0.065700
     63 H25         -2.3180     0.0810    -2.9830 h1         1 EGP       0.065700
     64 H26         -1.9910     1.2050    -4.3170 h1         1 EGP       0.065700
     65 H27          3.2590    -4.0270     2.0350 h1         1 EGP       0.039450
     66 H28          4.0260    -4.3270     0.4660 h1         1 EGP       0.039450
     67 H29          6.3250    -2.8010     3.5960 h1         1 EGP       0.039450
     68 H30          4.6050    -3.1340     3.8690 h1         1 EGP       0.039450
     69 H31          2.6740    -2.2430     0.4430 h1         1 EGP       0.040200
     70 H32          4.3940    -1.9110     0.1710 h1         1 EGP       0.040200
     71 H33          4.9720    -0.7170     3.5730 h1         1 EGP       0.040200
     72 H34          5.7390    -1.0170     2.0030 h1         1 EGP       0.040200
     73 H35          3.8920     0.3500     0.8740 h1         1 EGP       0.041200
     74 H36          3.3960     0.6570     2.5440 h1         1 EGP       0.041200
     75 H37         -5.4360     0.3340     4.8920 hn         1 EGP       0.304500
     76 H38         -3.8670    -0.6240     3.4490 hn         1 EGP       0.312500
     77 H39         -7.3040     3.4270    10.9290 hn         1 EGP       0.297700
     78 CAA          5.7260    -5.0450     2.3480 c3         1 EGP       0.153100
     79 CBC         -3.4620     0.8460     4.8070 cs         1 EGP       0.601400
     80 H6          -8.1420     7.7140     8.4270 ha         1 EGP       0.131000
@<TRIPOS>BOND
     1    39    79 2
     2    38    16 1
     3    38    15 1
     4    14    32 1
     5    14    17 1
     6    16    19 1
     7    79    32 1
     8    79    33 1
     9    15    18 1
    10    17    26 1
    11    33    25 1
    12    19    37 1
    13    18    37 1
    14     9     6 ar
    15     9    29 ar
    16    37     3 1
    17    25    12 ar
    18    25     7 ar
    19    26    29 1
    20    26    11 2
    21     6     5 ar
    22    12    31 ar
    23    29    28 ar
    24     3     2 1
    25     3     4 2
    26     7    10 ar
    27    11    34 1
    28     2     1 1
    29    31     1 1
    30    31    30 ar
    31     5     8 ar
    32    28    34 1
    33    28     8 ar
    34     1    13 1
    35    10    30 ar
    36    30    27 1
    37    13    27 2
    38    27    24 1
    39    23    21 1
    40    23    36 1
    41    21    35 1
    42    24    36 1
    43    36    22 1
    44    35    78 1
    45    35    20 1
    46    22    20 1
    47     2    40 1
    48     2    41 1
    49    78    42 1
    50    78    43 1
    51    78    44 1
    52     5    80 1
    53     6    45 1
    54     7    46 1
    55     8    47 1
    56     9    48 1
    57    10    49 1
    58    11    50 1
    59    12    51 1
    60    13    52 1
    61    14    53 1
    62    14    54 1
    63    15    55 1
    64    15    56 1
    65    16    57 1
    66    16    58 1
    67    17    59 1
    68    17    60 1
    69    18    61 1
    70    18    62 1
    71    19    63 1
    72    19    64 1
    73    20    65 1
    74    20    66 1
    75    21    67 1
    76    21    68 1
    77    22    69 1
    78    22    70 1
    79    23    71 1
    80    23    72 1
    81    24    73 1
    82    24    74 1
    83    32    75 1
    84    33    76 1
    85    34    77 1
@<TRIPOS>SUBSTRUCTURE
     1 EGP         1 TEMP              0 ****  ****    0 ROOT
