@<TRIPOS>MOLECULE
molecule
   24    24     1     0     0
SMALL
bcc


@<TRIPOS>ATOM
      1 C01          0.0000     0.0000     0.0000 c3         1 EGR      -0.096100
      2 C02          1.5300     0.0000     0.0000 c3         1 EGR       0.147400
      3 O03          2.0140     0.0000     1.3690 os         1 EGR      -0.429900
      4 C04          3.3500    -0.0000     1.5450 c          1 EGR       0.651700
      5 O05          4.0900     0.0000     0.5820 o          1 EGR      -0.546000
      6 C06          3.9140    -0.0010     2.9080 ca         1 EGR      -0.113600
      7 C07          5.2990    -0.0010     3.0930 ca         1 EGR      -0.113000
      8 C08          5.8250    -0.0010     4.3710 ca         1 EGR       0.081100
      9 O09          7.1730    -0.0010     4.5520 oh         1 EGR      -0.506600
     10 C10          4.9750    -0.0030     5.4740 ca         1 EGR       0.103100
     11 O11          5.4940    -0.0040     6.7310 oh         1 EGR      -0.506100
     12 C12          3.5940    -0.0020     5.2940 ca         1 EGR       0.081100
     13 O13          2.7680    -0.0030     6.3730 oh         1 EGR      -0.506600
     14 C14          3.0630     0.0030     4.0170 ca         1 EGR      -0.113000
     15 H1          -0.3610     0.8840     0.5110 hc         1 EGR       0.048367
     16 H2          -0.3610    -0.8850     0.5110 hc         1 EGR       0.048367
     17 H3          -0.3610     0.0000    -1.0210 hc         1 EGR       0.048367
     18 H4           1.8910    -0.8850    -0.5110 h1         1 EGR       0.050700
     19 H5           1.8910     0.8850    -0.5110 h1         1 EGR       0.050700
     20 H6           5.9600     0.0370     2.2360 ha         1 EGR       0.165500
     21 H7           7.5190    -0.8520     4.3360 ho         1 EGR       0.427500
     22 H8           5.6150     0.8850     7.0210 ho         1 EGR       0.435000
     23 H9           2.3730    -0.8540     6.4660 ho         1 EGR       0.427500
     24 H10          1.9890     0.0040     3.8770 ha         1 EGR       0.165500
@<TRIPOS>BOND
     1    11    10 1
     2     9     8 1
     3    10     8 ar
     4    10    12 ar
     5     8     7 ar
     6    13    12 1
     7    12    14 ar
     8     7     6 ar
     9    14     6 ar
    10     6     4 1
    11     4     5 2
    12     4     3 1
    13     1     2 1
    14     3     2 1
    15     1    15 1
    16     1    16 1
    17     1    17 1
    18     2    18 1
    19     2    19 1
    20     7    20 1
    21     9    21 1
    22    11    22 1
    23    13    23 1
    24    14    24 1
@<TRIPOS>SUBSTRUCTURE
     1 EGR         1 TEMP              0 ****  ****    0 ROOT
