@<TRIPOS>MOLECULE
EGR
   24    24     1     0     0
SMALL
bcc


@<TRIPOS>ATOM
      1 C01         0.0640    0.0100    0.0530 c3        1 EGR     -0.101100
      2 C02         1.5700   -0.0040   -0.0400 c3        1 EGR      0.140400
      3 O03         2.0540   -0.0150    1.3170 os        1 EGR     -0.436900
      4 C04         3.4120   -0.0280    1.4740 c         1 EGR      0.649700
      5 O05         4.1150   -0.0290    0.4580 o         1 EGR     -0.548000
      6 C06         3.8610   -0.0390    2.8760 ca        1 EGR     -0.098600
      7 C07         5.2410   -0.0500    3.1190 ca        1 EGR     -0.128000
      8 C08         5.7020   -0.0600    4.4360 ca        1 EGR      0.092600
      9 O09         7.0390   -0.0710    4.7750 oh        1 EGR     -0.500600
     10 C10         4.7950   -0.0600    5.5140 ca        1 EGR      0.052100
     11 O11         5.1810   -0.0700    6.8340 oh        1 EGR     -0.508100
     12 C12         3.4100   -0.0490    5.2490 ca        1 EGR      0.092600
     13 O13         2.4680   -0.0490    6.2480 oh        1 EGR     -0.500600
     14 C14         2.9430   -0.0390    3.9270 ca        1 EGR     -0.128000
     15 H1         -0.2880    0.9160    0.6030 hc        1 EGR      0.049033
     16 H2         -0.3630    0.0200   -0.9790 hc        1 EGR      0.049033
     17 H3         -0.3050   -0.8940    0.5930 hc        1 EGR      0.049033
     18 H4          1.9510   -0.9190   -0.5640 h1        1 EGR      0.052700
     19 H5          1.9690    0.9080   -0.5550 h1        1 EGR      0.052700
     20 H6          5.9460   -0.0500    2.2720 ha        1 EGR      0.170500
     21 H7          7.5530   -0.0700    3.9540 ho        1 EGR      0.439000
     22 H8          6.1510   -0.0760    6.8610 ho        1 EGR      0.451000
     23 H9          2.9330   -0.0570    7.1000 ho        1 EGR      0.439000
     24 H10         1.8590   -0.0300    3.7330 ha        1 EGR      0.170500
@<TRIPOS>BOND
     1    1    2 1   
     2    1   15 1   
     3    1   16 1   
     4    1   17 1   
     5    2    3 1   
     6    2   18 1   
     7    2   19 1   
     8    3    4 1   
     9    4    5 2   
    10    4    6 1   
    11    6    7 ar  
    12    6   14 ar  
    13    7    8 ar  
    14    7   20 1   
    15    8    9 1   
    16    8   10 ar  
    17    9   21 1   
    18   10   11 1   
    19   10   12 ar  
    20   11   22 1   
    21   12   13 1   
    22   12   14 ar  
    23   13   23 1   
    24   14   24 1   
@<TRIPOS>SUBSTRUCTURE
     1 EGR         1 TEMP              0 ****  ****    0 ROOT
