@<TRIPOS>MOLECULE
EGT
   36    38     1     0     0
SMALL
bcc


@<TRIPOS>ATOM
      1 O1          0.1540    0.0890   -0.0310 os        1 EGT     -0.320900
      2 C2          1.5960    0.0480    0.0380 c3        1 EGT      0.149400
      3 C3          2.0560    0.1290    1.5060 c3        1 EGT      0.121100
      4 C4          1.6290    1.4800    2.0780 c3        1 EGT     -0.053100
      5 C5          0.2600    1.8570    1.6500 ca        1 EGT     -0.207300
      6 C6         -0.4200    2.9210    2.2720 ca        1 EGT      0.193100
      7 C7         -1.7200    3.2830    1.8990 ca        1 EGT     -0.325000
      8 C8         -2.3510    2.5620    0.8750 ca        1 EGT      0.187100
      9 C9         -1.7090    1.5030    0.2190 ca        1 EGT     -0.209000
     10 C10        -0.4090    1.1710    0.6220 ca        1 EGT      0.173100
     11 C11         2.0310   -1.2160   -0.6410 ca        1 EGT     -0.021300
     12 C12         3.2200   -1.1940   -1.3790 ca        1 EGT     -0.161000
     13 C13         3.6530   -2.3640   -2.0150 ca        1 EGT      0.151600
     14 C14         2.8880   -3.5420   -1.9300 ca        1 EGT     -0.086900
     15 C15         1.7080   -3.5510   -1.1660 ca        1 EGT      0.151600
     16 C16         1.2740   -2.3820   -0.5230 ca        1 EGT     -0.161000
     17 O17         1.5560   -0.9400    2.2830 oh        1 EGT     -0.579800
     18 O18         0.2590    3.5810    3.2680 oh        1 EGT     -0.491100
     19 O19        -3.6260    2.8530    0.4540 oh        1 EGT     -0.489100
     20 O20         4.8220   -2.3090   -2.7300 oh        1 EGT     -0.490100
     21 O21         3.3490   -4.7090   -2.5140 oh        1 EGT     -0.518100
     22 O22         0.9350   -4.6760   -1.0390 oh        1 EGT     -0.490100
     23 HC2         1.9960    0.9440   -0.5170 h1        1 EGT      0.070700
     24 HC3         3.1750    0.0130    1.5600 h1        1 EGT      0.093700
     25 HC41        2.3530    2.2720    1.7490 hc        1 EGT      0.073200
     26 HC42        1.6720    1.4330    3.2000 hc        1 EGT      0.073200
     27 HC7        -2.2350    4.1140    2.3990 ha        1 EGT      0.139000
     28 HC9        -2.2120    0.9480   -0.5830 ha        1 EGT      0.172000
     29 H12         3.8210   -0.2780   -1.4690 ha        1 EGT      0.160500
     30 H16         0.3470   -2.3930    0.0690 ha        1 EGT      0.160500
     31 H17         0.5930   -0.9290    2.1960 ho        1 EGT      0.409000
     32 H18        -0.3260    4.2640    3.6280 ho        1 EGT      0.423000
     33 H19        -3.9530    3.5990    0.9790 ho        1 EGT      0.422000
     34 H20         5.0590   -3.2180   -2.9760 ho        1 EGT      0.433000
     35 H21         2.9510   -4.7420   -3.3980 ho        1 EGT      0.413000
     36 H22         1.4490   -5.4260   -1.3810 ho        1 EGT      0.433000
@<TRIPOS>BOND
     1    1    2 1   
     2    1   10 1   
     3    2    3 1   
     4    2   11 1   
     5    2   23 1   
     6    3    4 1   
     7    3   17 1   
     8    3   24 1   
     9    4    5 1   
    10    4   25 1   
    11    4   26 1   
    12    5    6 ar  
    13    5   10 ar  
    14    6    7 ar  
    15    6   18 1   
    16    7    8 ar  
    17    7   27 1   
    18    8    9 ar  
    19    8   19 1   
    20    9   10 ar  
    21    9   28 1   
    22   11   12 ar  
    23   11   16 ar  
    24   12   13 ar  
    25   12   29 1   
    26   13   14 ar  
    27   13   20 1   
    28   14   15 ar  
    29   14   21 1   
    30   15   16 ar  
    31   15   22 1   
    32   16   30 1   
    33   17   31 1   
    34   18   32 1   
    35   19   33 1   
    36   20   34 1   
    37   21   35 1   
    38   22   36 1   
@<TRIPOS>SUBSTRUCTURE
     1 EGT         1 TEMP              0 ****  ****    0 ROOT
