@<TRIPOS>MOLECULE
molecule
   36    38     1     0     0
SMALL
bcc


@<TRIPOS>ATOM
      1 O1           0.0000     0.0000     0.0000 os         1 EGT      -0.280900
      2 C2           1.4210     0.0000     0.0000 c3         1 EGT       0.191400
      3 C3           1.9190     0.0000     1.4510 c3         1 EGT       0.113100
      4 C4           1.6050     1.3800     2.0400 c3         1 EGT      -0.044100
      5 C5           0.2140     1.7840     1.6120 ca         1 EGT      -0.177300
      6 C6          -0.3660     2.8840     2.2360 ca         1 EGT       0.166100
      7 C7          -1.6350     3.3060     1.8780 ca         1 EGT      -0.257000
      8 C8          -2.3290     2.6250     0.8890 ca         1 EGT       0.160100
      9 C9          -1.7550     1.5290     0.2720 ca         1 EGT      -0.203000
     10 C10         -0.4770     1.0960     0.6340 ca         1 EGT       0.173100
     11 C11          1.9250    -1.2300    -0.7110 ca         1 EGT      -0.074300
     12 C12          3.0820    -1.1640    -1.4670 ca         1 EGT      -0.136000
     13 C13          3.5480    -2.2940    -2.1220 ca         1 EGT       0.090600
     14 C14          2.8530    -3.4920    -2.0180 ca         1 EGT       0.074100
     15 C15          1.6920    -3.5540    -1.2570 ca         1 EGT       0.090600
     16 C16          1.2340    -2.4220    -0.6000 ca         1 EGT      -0.136000
     17 O17          1.2410    -1.0120     2.1980 oh         1 EGT      -0.584800
     18 O18          0.3180     3.5500     3.2030 oh         1 EGT      -0.507100
     19 O19         -3.5740     3.0350     0.5260 oh         1 EGT      -0.521100
     20 O20          4.6850    -2.2280    -2.8650 oh         1 EGT      -0.508100
     21 O21          3.3080    -4.6040    -2.6590 oh         1 EGT      -0.500100
     22 O22          1.0070    -4.7250    -1.1520 oh         1 EGT      -0.508100
     23 HC2          1.7810     0.8880    -0.5040 h1         1 EGT       0.065700
     24 HC3          2.9880    -0.1730     1.4720 h1         1 EGT       0.044700
     25 HC41         1.6360     1.3170     3.1210 hc         1 EGT       0.067200
     26 HC42         2.3150     2.0990     1.6490 hc         1 EGT       0.067200
     27 HC7         -2.0810     4.1660     2.3640 ha         1 EGT       0.144000
     28 HC9         -2.3010     1.0010    -0.5000 ha         1 EGT       0.156000
     29 H12          3.6230    -0.2300    -1.5480 ha         1 EGT       0.155500
     30 H16          0.3290    -2.4700    -0.0070 ha         1 EGT       0.155500
     31 H17          1.7930    -1.3040     2.9050 ho         1 EGT       0.405000
     32 H18          0.1830     4.4770     3.1020 ho         1 EGT       0.426000
     33 H19         -4.2130     2.6410     1.0970 ho         1 EGT       0.425000
     34 H20          5.4330    -2.1960    -2.2930 ho         1 EGT       0.422000
     35 H21          3.8620    -5.0980    -2.0780 ho         1 EGT       0.422000
     36 H22          0.2830    -4.7210    -1.7560 ho         1 EGT       0.422000
@<TRIPOS>BOND
     1     1     2 1
     2     1    10 1
     3     2     3 1
     4     2    11 1
     5     2    23 1
     6     3     4 1
     7     3    17 1
     8     3    24 1
     9     4     5 1
    10     4    25 1
    11     4    26 1
    12     5     6 ar
    13     5    10 ar
    14     6     7 ar
    15     6    18 1
    16     7     8 ar
    17     7    27 1
    18     8     9 ar
    19     8    19 1
    20     9    10 ar
    21     9    28 1
    22    11    12 ar
    23    11    16 ar
    24    12    13 ar
    25    12    29 1
    26    13    14 ar
    27    13    20 1
    28    14    15 ar
    29    14    21 1
    30    15    16 ar
    31    15    22 1
    32    16    30 1
    33    17    31 1
    34    18    32 1
    35    19    33 1
    36    20    34 1
    37    21    35 1
    38    22    36 1
@<TRIPOS>SUBSTRUCTURE
     1 EGT         1 TEMP              0 ****  ****    0 ROOT
