@<TRIPOS>MOLECULE
molecule
   24    23     1     0     0
SMALL
bcc


@<TRIPOS>ATOM
      1 C10          0.0000     0.0000     0.0000 c          1 EGV       0.813600
      2 C02          4.5110    -0.1250    -2.3470 c3         1 EGV       0.163800
      3 C03          6.8360    -0.3700    -3.1110 c2         1 EGV       0.699100
      4 C06          3.7480     0.0010    -1.0270 c3         1 EGV       0.202100
      5 C07          2.2440     0.0010    -1.3060 c3         1 EGV      -0.251400
      6 C09          1.4900     0.0000     0.0000 c          1 EGV       0.509100
      7 N04          6.3810    -0.3820    -4.4090 nz         1 EGV      -0.805600
      8 N05          8.1130    -0.4780    -2.8670 n2         1 EGV      -0.807100
      9 O08          4.1120     1.2210    -0.3790 oh         1 EGV      -0.577800
     10 O11         -0.6730     0.0000     1.1660 o          1 EGV      -0.786800
     11 O12         -0.6060     0.0060    -1.0500 o          1 EGV      -0.786800
     12 O13          2.0950    -0.0010     1.0450 o          1 EGV      -0.565100
     13 H1           4.3320     0.7550    -2.9530 h1         1 EGV       0.050200
     14 H2           4.1710    -1.0050    -2.8780 h1         1 EGV       0.050200
     15 H3           3.9960    -0.8360    -0.3850 h1         1 EGV       0.029700
     16 H4           2.7080    -0.8480    -0.8180 hc         1 EGV       0.078200
     17 H5           1.8170    -0.4450    -2.1960 hc         1 EGV       0.078200
     18 H6           6.2750    -0.2550    -1.1260 hn         1 EGV       0.508800
     19 H7           7.1530    -0.5200    -5.0310 hn         1 EGV       0.466467
     20 H8           5.9380     0.4910    -4.6150 hn         1 EGV       0.466467
     21 H9           8.7620    -0.5690    -3.6240 hn         1 EGV       0.429400
     22 H10          4.6020     1.0280     0.4030 ho         1 EGV       0.410000
     23 H043         5.7240    -1.1280    -4.5250 hn         1 EGV       0.466467
     24 N01          5.9450    -0.2440    -2.0710 nu         1 EGV      -0.840200
@<TRIPOS>BOND
     1    11     1 1
     2     1    10 1
     3     1     6 1
     4     5     6 1
     5     5     4 1
     6     6    12 2
     7     9     4 1
     8     2     4 1
     9     2    24 1
    10    24     3 1
    11     3     8 2
    12     3     7 1
    13     2    13 1
    14     2    14 1
    15     4    15 1
    16     5    16 1
    17     5    17 1
    18    24    18 1
    19     7    19 1
    20     7    20 1
    21     8    21 1
    22     9    22 1
    23    23     7 1
@<TRIPOS>SUBSTRUCTURE
     1 EGV         1 TEMP              0 ****  ****    0 ROOT
