@<TRIPOS>MOLECULE
EGV
   24    23     1     0     0
SMALL
bcc


@<TRIPOS>ATOM
      1 C10          0.0000     0.0000     0.0000 c          1 EGV       0.896600
      2 C02          4.5110    -0.1250    -2.3470 c3         1 EGV       0.085800
      3 C03          6.8360    -0.3700    -3.1110 c2         1 EGV       0.260100
      4 C06          3.7480     0.0010    -1.0270 c3         1 EGV       0.269100
      5 C07          2.2440     0.0010    -1.3060 c3         1 EGV      -0.230400
      6 C09          1.4900     0.0000     0.0000 c          1 EGV       0.566100
      7 N04          6.3810    -0.3820    -4.4090 nz         1 EGV       0.190400
      8 N05          8.1130    -0.4780    -2.8670 n2         1 EGV      -0.662100
      9 O08          4.1120     1.2210    -0.3790 oh         1 EGV      -0.569800
     10 O11         -0.6730     0.0000     1.1660 o          1 EGV      -0.840800
     11 O12         -0.6060     0.0060    -1.0500 o          1 EGV      -0.840800
     12 O13          2.0950    -0.0010     1.0450 o          1 EGV      -0.605100
     13 H1           4.1710    -1.0050    -2.8780 h1         1 EGV       0.027700
     14 H2           4.3320     0.7550    -2.9530 h1         1 EGV       0.027700
     15 H3           3.9960    -0.8360    -0.3850 h1         1 EGV      -0.003300
     16 H4           2.7080    -0.8480    -0.8180 hc         1 EGV       0.053200
     17 H5           1.8170    -0.4450    -2.1960 hc         1 EGV       0.053200
     18 H6           6.2710    -0.2860    -1.1260 hn         1 EGV       0.339800
     19 H7           5.7230    -1.1260    -4.5250 hn         1 EGV       0.224467
     20 H8           5.9380     0.4910    -4.6150 hn         1 EGV       0.224467
     21 H9           8.4450    -0.4690    -1.9230 hn         1 EGV       0.377400
     22 H10          4.5750     1.0280     0.4190 ho         1 EGV       0.397000
     23 H043         7.1530    -0.5170    -5.0320 hn         1 EGV       0.224467
     24 N01          5.9450    -0.2440    -2.0710 nu         1 EGV      -0.465200
@<TRIPOS>BOND
     1     1     6 1   
     2     1    10 1   
     3     1    11 1   
     4     2     4 1   
     5     2    13 1   
     6     2    14 1   
     7     2    24 1   
     8     3     7 1   
     9     3     8 2   
    10     3    24 1   
    11     4     5 1   
    12     4     9 1   
    13     4    15 1   
    14     5     6 1   
    15     5    16 1   
    16     5    17 1   
    17     6    12 2   
    18     7    19 1   
    19     7    20 1   
    20     7    23 1   
    21     8    21 1   
    22     9    22 1   
    23    18    24 1   
@<TRIPOS>SUBSTRUCTURE
     1 EGV         1 TEMP              0 ****  ****    0 ROOT
