@<TRIPOS>MOLECULE
molecule
   55    58     1     0     0
SMALL
bcc


@<TRIPOS>ATOM
      1 C            0.0000     0.0000     0.0000 c          1 EGW       0.508700
      2 O            1.2160     0.0000     0.0000 o          1 EGW      -0.418100
      3 O1          -2.8020     0.0010     4.8520 os         1 EGW      -0.248200
      4 C1          -0.7380     0.0000     1.2780 ca         1 EGW      -0.228600
      5 N           -0.6740     0.0040    -1.1670 nz         1 EGW      -0.678400
      6 C10         -2.7300    -2.3730     4.7840 ca         1 EGW      -0.171000
      7 C11         -2.6460    -4.8600     4.6990 c          1 EGW       0.672700
      8 C12         -4.8710    -5.7740     5.1510 c3         1 EGW       0.093500
      9 C13         -5.9060    -6.0520     4.0550 c3         1 EGW      -0.091400
     10 C14         -5.6010    -7.4020     3.4030 c3         1 EGW      -0.022400
     11 C15         -4.2140    -7.3570     2.7570 c3         1 EGW      -0.091400
     12 C16         -3.1610    -7.0930     3.8370 c3         1 EGW       0.093500
     13 C17         -6.6360    -7.6960     2.3470 ca         1 EGW      -0.101300
     14 C18         -7.4270    -8.8250     2.4500 ca         1 EGW      -0.099500
     15 C19         -8.3770    -9.0940     1.4830 ca         1 EGW      -0.163500
     16 C2          -0.0420     0.0010     2.4890 ca         1 EGW      -0.053500
     17 C20         -8.5370    -8.2330     0.4120 ca         1 EGW       0.138900
     18 C21         -7.7440    -7.1020     0.3090 ca         1 EGW      -0.163500
     19 C22         -6.7980    -6.8320     1.2810 ca         1 EGW      -0.099500
     20 C23         -2.8210     0.0060     2.4740 ca         1 EGW      -0.135000
     21 C24         -2.1350     0.0050     1.2800 ca         1 EGW      -0.053500
     22 C3          -0.7340     0.0020     3.6790 ca         1 EGW      -0.135000
     23 C4          -2.1240     0.0010     3.6770 ca         1 EGW       0.201100
     24 C5          -3.1200    -1.1980     5.4070 ca         1 EGW       0.111100
     25 C6          -3.8320    -1.2460     6.5970 ca         1 EGW      -0.120000
     26 C7          -4.1570    -2.4640     7.1660 ca         1 EGW      -0.093000
     27 C8          -3.7750    -3.6400     6.5530 ca         1 EGW      -0.128000
     28 C9          -3.0580    -3.6020     5.3570 ca         1 EGW      -0.095600
     29 F           -9.4640    -8.4960    -0.5340 f          1 EGW      -0.134900
     30 N1          -3.5260    -5.8720     4.5670 n          1 EGW      -0.479800
     31 O2          -1.5130    -4.9820     4.2760 o          1 EGW      -0.609100
     32 H1          -1.2520    -0.8110    -1.2210 hn         1 EGW       0.477467
     33 H2          -0.0230     0.0020    -1.9280 hn         1 EGW       0.477467
     34 H3          -2.0970    -2.3360     3.9060 ha         1 EGW       0.144000
     35 H4          -4.9760    -6.5060     5.9430 h1         1 EGW       0.064700
     36 H5          -5.0230    -4.7770     5.5470 h1         1 EGW       0.064700
     37 H6          -5.8580    -5.2710     3.3060 hc         1 EGW       0.054950
     38 H7          -6.8960    -6.0800     4.4930 hc         1 EGW       0.054950
     39 H8          -5.6190    -8.1780     4.1590 hc         1 EGW       0.062700
     40 H9          -4.1850    -6.5610     2.0230 hc         1 EGW       0.054950
     41 H10         -4.0090    -8.3060     2.2780 hc         1 EGW       0.054950
     42 H11         -2.1910    -6.9600     3.3720 h1         1 EGW       0.064700
     43 H12         -3.1290    -7.9300     4.5240 h1         1 EGW       0.064700
     44 H13         -7.3020    -9.4990     3.2890 ha         1 EGW       0.134500
     45 H14         -8.9970    -9.9790     1.5650 ha         1 EGW       0.148000
     46 H15          1.0410     0.0020     2.4920 ha         1 EGW       0.144000
     47 H16         -7.8690    -6.4260    -0.5280 ha         1 EGW       0.148000
     48 H17         -6.1770    -5.9470     1.2010 ha         1 EGW       0.134500
     49 H18         -3.9040     0.0100     2.4770 ha         1 EGW       0.179500
     50 H19         -2.6790     0.0090     0.3430 ha         1 EGW       0.144000
     51 H20         -0.1940     0.0030     4.6190 ha         1 EGW       0.179500
     52 H21         -4.1350    -0.3260     7.0830 ha         1 EGW       0.157000
     53 H22         -4.7140    -2.4950     8.0950 ha         1 EGW       0.155000
     54 H23         -4.0310    -4.5920     7.0020 ha         1 EGW       0.154000
     55 HN3         -1.2520     0.8190    -1.2160 hn         1 EGW       0.477467
@<TRIPOS>BOND
     1    18    19 ar
     2    18    17 ar
     3    29    17 1
     4    19    13 ar
     5    17    15 ar
     6    12    11 1
     7    12    30 1
     8    11    10 1
     9    13    10 1
    10    13    14 ar
    11    15    14 ar
    12    10     9 1
    13    31     7 2
    14    30     7 1
    15    30     8 1
    16     7    28 1
    17     8     9 1
    18     5     1 1
    19     6    28 ar
    20     6    24 ar
    21    28    27 ar
    22    21    20 ar
    23    21     4 ar
    24    20    23 ar
    25     4     1 1
    26     4    16 ar
    27    23     3 1
    28    23    22 ar
    29     1     2 2
    30     3    24 1
    31    24    25 ar
    32    16    22 ar
    33    27    26 ar
    34    25    26 ar
    35     5    32 1
    36     5    33 1
    37     6    34 1
    38     8    35 1
    39     8    36 1
    40     9    37 1
    41     9    38 1
    42    10    39 1
    43    11    40 1
    44    11    41 1
    45    12    42 1
    46    12    43 1
    47    14    44 1
    48    15    45 1
    49    16    46 1
    50    18    47 1
    51    19    48 1
    52    20    49 1
    53    21    50 1
    54    22    51 1
    55    25    52 1
    56    26    53 1
    57    27    54 1
    58    55     5 1
@<TRIPOS>SUBSTRUCTURE
     1 EGW         1 TEMP              0 ****  ****    0 ROOT
