@<TRIPOS>MOLECULE
EGW
   55    58     1     0     0
SMALL
bcc


@<TRIPOS>ATOM
      1 C            0.0000     0.0000     0.0000 c          1 EGW       0.358700
      2 O            1.2160     0.0000     0.0000 o          1 EGW      -0.429100
      3 O1          -2.8020     0.0010     4.8520 os         1 EGW      -0.226200
      4 C1          -0.7380     0.0000     1.2780 ca         1 EGW      -0.256600
      5 N           -0.6740     0.0040    -1.1670 nz         1 EGW       0.200600
      6 C10         -2.7300    -2.3730     4.7840 ca         1 EGW      -0.159000
      7 C11         -2.6460    -4.8600     4.6990 c          1 EGW       0.604700
      8 C12         -4.8710    -5.7740     5.1510 c3         1 EGW       0.027500
      9 C13         -5.9060    -6.0520     4.0550 c3         1 EGW      -0.039900
     10 C14         -5.6010    -7.4020     3.4030 c3         1 EGW       0.008600
     11 C15         -4.2140    -7.3570     2.7570 c3         1 EGW      -0.039900
     12 C16         -3.1610    -7.0930     3.8370 c3         1 EGW       0.027500
     13 C17         -6.6360    -7.6960     2.3470 ca         1 EGW      -0.106300
     14 C18         -7.4270    -8.8250     2.4500 ca         1 EGW      -0.072000
     15 C19         -8.3770    -9.0940     1.4830 ca         1 EGW      -0.127500
     16 C2          -0.0420     0.0010     2.4890 ca         1 EGW      -0.012000
     17 C20         -8.5370    -8.2330     0.4120 ca         1 EGW       0.111900
     18 C21         -7.7440    -7.1020     0.3090 ca         1 EGW      -0.127500
     19 C22         -6.7980    -6.8320     1.2810 ca         1 EGW      -0.072000
     20 C23         -2.8210     0.0060     2.4740 ca         1 EGW      -0.111500
     21 C24         -2.1350     0.0050     1.2800 ca         1 EGW      -0.012000
     22 C3          -0.7340     0.0020     3.6790 ca         1 EGW      -0.111500
     23 C4          -2.1240     0.0010     3.6770 ca         1 EGW       0.214100
     24 C5          -3.1200    -1.1980     5.4070 ca         1 EGW       0.120100
     25 C6          -3.8320    -1.2460     6.5970 ca         1 EGW      -0.104000
     26 C7          -4.1570    -2.4640     7.1660 ca         1 EGW      -0.055000
     27 C8          -3.7750    -3.6400     6.5530 ca         1 EGW      -0.115000
     28 C9          -3.0580    -3.6020     5.3570 ca         1 EGW      -0.094600
     29 F           -9.4640    -8.4960    -0.5340 f          1 EGW      -0.123900
     30 N1          -3.5260    -5.8720     4.5670 n          1 EGW      -0.134800
     31 O2          -1.5130    -4.9820     4.2760 o          1 EGW      -0.653100
     32 H1          -1.2520    -0.8110    -1.2210 hn         1 EGW       0.246467
     33 H2          -0.0230     0.0020    -1.9280 hn         1 EGW       0.246467
     34 H3          -2.0970    -2.3360     3.9060 ha         1 EGW       0.122000
     35 H4          -4.9760    -6.5060     5.9430 h1         1 EGW       0.040700
     36 H5          -5.0230    -4.7770     5.5470 h1         1 EGW       0.040700
     37 H6          -5.8580    -5.2710     3.3060 hc         1 EGW       0.026700
     38 H7          -6.8960    -6.0800     4.4930 hc         1 EGW       0.026700
     39 H8          -5.6190    -8.1780     4.1590 hc         1 EGW       0.039700
     40 H9          -4.1850    -6.5610     2.0230 hc         1 EGW       0.026700
     41 H10         -4.0090    -8.3060     2.2780 hc         1 EGW       0.026700
     42 H11         -2.1910    -6.9600     3.3720 h1         1 EGW       0.040700
     43 H12         -3.1290    -7.9300     4.5240 h1         1 EGW       0.040700
     44 H13         -7.3020    -9.4990     3.2890 ha         1 EGW       0.108500
     45 H14         -8.9970    -9.9790     1.5650 ha         1 EGW       0.121000
     46 H15          1.0410     0.0020     2.4920 ha         1 EGW       0.109500
     47 H16         -7.8690    -6.4260    -0.5280 ha         1 EGW       0.121000
     48 H17         -6.1770    -5.9470     1.2010 ha         1 EGW       0.108500
     49 H18         -3.9040     0.0100     2.4770 ha         1 EGW       0.144000
     50 H19         -2.6790     0.0090     0.3430 ha         1 EGW       0.109500
     51 H20         -0.1940     0.0030     4.6190 ha         1 EGW       0.144000
     52 H21         -4.1350    -0.3260     7.0830 ha         1 EGW       0.125000
     53 H22         -4.7140    -2.4950     8.0950 ha         1 EGW       0.118000
     54 H23         -4.0310    -4.5920     7.0020 ha         1 EGW       0.129000
     55 HN3         -1.2520     0.8190    -1.2160 hn         1 EGW       0.246467
@<TRIPOS>BOND
     1     1     2 2   
     2     1     4 1   
     3     1     5 1   
     4     3    23 1   
     5     3    24 1   
     6     4    16 ar  
     7     4    21 ar  
     8     5    32 1   
     9     5    33 1   
    10     5    55 1   
    11     6    24 ar  
    12     6    28 ar  
    13     6    34 1   
    14     7    28 1   
    15     7    30 1   
    16     7    31 2   
    17     8     9 1   
    18     8    30 1   
    19     8    35 1   
    20     8    36 1   
    21     9    10 1   
    22     9    37 1   
    23     9    38 1   
    24    10    11 1   
    25    10    13 1   
    26    10    39 1   
    27    11    12 1   
    28    11    40 1   
    29    11    41 1   
    30    12    30 1   
    31    12    42 1   
    32    12    43 1   
    33    13    14 ar  
    34    13    19 ar  
    35    14    15 ar  
    36    14    44 1   
    37    15    17 ar  
    38    15    45 1   
    39    16    22 ar  
    40    16    46 1   
    41    17    18 ar  
    42    17    29 1   
    43    18    19 ar  
    44    18    47 1   
    45    19    48 1   
    46    20    21 ar  
    47    20    23 ar  
    48    20    49 1   
    49    21    50 1   
    50    22    23 ar  
    51    22    51 1   
    52    24    25 ar  
    53    25    26 ar  
    54    25    52 1   
    55    26    27 ar  
    56    26    53 1   
    57    27    28 ar  
    58    27    54 1   
@<TRIPOS>SUBSTRUCTURE
     1 EGW         1 TEMP              0 ****  ****    0 ROOT
