@<TRIPOS>MOLECULE
molecule
  109   108     1     0     0
SMALL
bcc


@<TRIPOS>ATOM
      1 O12          0.0000     0.0000     0.0000 o          1 EGY      -0.798000
      2 P            1.6100     0.0000     0.0000 p5         1 EGY       1.328800
      3 O14          2.1020     0.0000     1.3960 o          1 EGY      -0.798000
      4 O13          2.1460     1.3150    -0.7580 os         1 EGY      -0.610200
      5 C11          1.9280     2.6400    -0.2680 c3         1 EGY       0.202400
      6 C12          2.5660     3.6500    -1.2240 c3         1 EGY       0.092800
      7 N            1.8080     3.6800    -2.4810 n4         1 EGY      -0.569800
      8 C13          2.4590     4.6000    -3.4230 c3         1 EGY       0.093433
      9 C14          1.7710     2.3310    -3.0630 c3         1 EGY       0.093433
     10 C15          0.4380     4.1380    -2.2170 c3         1 EGY       0.093433
     11 O11          2.1470    -1.3130    -0.7600 os         1 EGY      -0.590200
     12 C1           1.9300    -2.6390    -0.2710 c3         1 EGY       0.212400
     13 C2           2.5690    -3.6460    -1.2280 c3         1 EGY       0.140100
     14 O21          4.0100    -3.4690    -1.2270 os         1 EGY      -0.411900
     15 C21          4.7110    -4.1830    -0.3320 c          1 EGY       0.632100
     16 O22          4.1390    -4.9300     0.4240 o          1 EGY      -0.556000
     17 C22          6.2110    -4.0500    -0.2720 c3         1 EGY      -0.125400
     18 C23          6.7600    -4.9640     0.8250 c3         1 EGY      -0.072400
     19 C24          8.2830    -4.8290     0.8860 c3         1 EGY      -0.083400
     20 C25          8.8320    -5.7430     1.9840 c3         1 EGY      -0.080400
     21 C26         10.3550    -5.6090     2.0460 c3         1 EGY      -0.082400
     22 C27         10.9040    -6.5230     3.1430 c3         1 EGY      -0.081400
     23 C28         12.4260    -6.3880     3.2040 c3         1 EGY      -0.081400
     24 C29         12.9750    -7.3020     4.3020 c3         1 EGY      -0.082400
     25 C2A         14.4980    -7.1670     4.3630 c3         1 EGY      -0.081400
     26 C2B         15.0480    -8.0810     5.4600 c3         1 EGY      -0.082400
     27 C2C         16.5700    -7.9470     5.5210 c3         1 EGY      -0.081400
     28 C2D         17.1190    -8.8610     6.6190 c3         1 EGY      -0.084400
     29 C2E         18.6420    -8.7260     6.6810 c3         1 EGY      -0.092100
     30 C3           2.0280    -3.4210    -2.6420 c3         1 EGY       0.162400
     31 O31          2.2450    -2.0380    -3.0290 os         1 EGY      -0.371900
     32 C31          1.8250    -1.6720    -4.2500 c          1 EGY       0.627100
     33 O32          1.2940    -2.4830    -4.9720 o          1 EGY      -0.564000
     34 C32          2.0150    -0.2540    -4.7200 c3         1 EGY      -0.132400
     35 C33          1.4540    -0.1050    -6.1350 c3         1 EGY      -0.076400
     36 C34          1.6470     1.3360    -6.6110 c3         1 EGY      -0.083400
     37 C35          1.0850     1.4850    -8.0260 c3         1 EGY      -0.081400
     38 C36          1.2790     2.9260    -8.5040 c3         1 EGY      -0.082400
     39 C37          0.7170     3.0740    -9.9190 c3         1 EGY      -0.081400
     40 C38          0.9100     4.5150   -10.3960 c3         1 EGY      -0.082400
     41 C39          0.3480     4.6640   -11.8110 c3         1 EGY      -0.081400
     42 C3A          0.5410     6.1050   -12.2870 c3         1 EGY      -0.084400
     43 C3B         -0.0210     6.2530   -13.7030 c3         1 EGY      -0.092100
     44 H2           2.3740     2.7400     0.7140 h1         1 EGY       0.069700
     45 H3           0.8630     2.8290    -0.2010 h1         1 EGY       0.069700
     46 H4           2.5520     4.6340    -0.7700 hx         1 EGY       0.093200
     47 H5           3.5900     3.3600    -1.4250 hx         1 EGY       0.093200
     48 H6           3.4240     4.2000    -3.7110 hx         1 EGY       0.096700
     49 H7           1.8380     4.7140    -4.3040 hx         1 EGY       0.096700
     50 H8           2.5950     5.5650    -2.9500 hx         1 EGY       0.096700
     51 H9           2.7540     1.8820    -2.9960 hx         1 EGY       0.096700
     52 H10          1.4720     2.3950    -4.1020 hx         1 EGY       0.096700
     53 H11          1.0580     1.7230    -2.5190 hx         1 EGY       0.096700
     54 H12         -0.1620     3.3040    -1.8740 hx         1 EGY       0.096700
     55 H13          0.0100     4.5410    -3.1270 hx         1 EGY       0.096700
     56 H14          0.4550     4.9080    -1.4540 hx         1 EGY       0.096700
     57 H15          0.8650    -2.8290    -0.2050 h1         1 EGY       0.053200
     58 H16          2.3770    -2.7400     0.7110 h1         1 EGY       0.053200
     59 H17          2.3290    -4.6520    -0.9070 h1         1 EGY       0.084700
     60 H18          6.4750    -3.0220    -0.0520 hc         1 EGY       0.069700
     61 H19          6.6380    -4.3350    -1.2270 hc         1 EGY       0.069700
     62 H20          6.4980    -5.9910     0.6050 hc         1 EGY       0.059700
     63 H21          6.3340    -4.6790     1.7790 hc         1 EGY       0.059700
     64 H22          8.5460    -3.8010     1.1070 hc         1 EGY       0.038700
     65 H23          8.7100    -5.1130    -0.0680 hc         1 EGY       0.038700
     66 H24          8.4060    -5.4570     2.9380 hc         1 EGY       0.045200
     67 H25          8.5690    -6.7700     1.7640 hc         1 EGY       0.045200
     68 H26         10.7810    -5.8940     1.0910 hc         1 EGY       0.039700
     69 H27         10.6180    -4.5810     2.2660 hc         1 EGY       0.039700
     70 H28         10.4770    -6.2370     4.0970 hc         1 EGY       0.042200
     71 H29         10.6400    -7.5500     2.9230 hc         1 EGY       0.042200
     72 H30         12.8520    -6.6730     2.2500 hc         1 EGY       0.040200
     73 H31         12.6890    -5.3610     3.4240 hc         1 EGY       0.040200
     74 H32         12.5480    -7.0170     5.2560 hc         1 EGY       0.041700
     75 H33         12.7120    -8.3300     4.0810 hc         1 EGY       0.041700
     76 H34         14.7610    -6.1400     4.5840 hc         1 EGY       0.040700
     77 H35         14.9240    -7.4520     3.4090 hc         1 EGY       0.040700
     78 H36         14.6210    -7.7970     6.4150 hc         1 EGY       0.041200
     79 H37         14.7840    -9.1090     5.2400 hc         1 EGY       0.041200
     80 H38         16.9960    -8.2320     4.5670 hc         1 EGY       0.040700
     81 H39         16.8330    -6.9190     5.7420 hc         1 EGY       0.040700
     82 H40         16.8560    -9.8880     6.3980 hc         1 EGY       0.039700
     83 H41         16.6920    -8.5760     7.5730 hc         1 EGY       0.039700
     84 H42         19.0300    -9.3730     7.4580 hc         1 EGY       0.032367
     85 H43         19.0690    -9.0110     5.7270 hc         1 EGY       0.032367
     86 H44         18.9050    -7.6980     6.9020 hc         1 EGY       0.032367
     87 H45          0.9670    -3.6390    -2.6620 h1         1 EGY       0.056700
     88 H46          2.5440    -4.0740    -3.3350 h1         1 EGY       0.056700
     89 H47          1.4940     0.4210    -4.0520 hc         1 EGY       0.059200
     90 H48          3.0720    -0.0130    -4.7240 hc         1 EGY       0.059200
     91 H49          1.9750    -0.7790    -6.8030 hc         1 EGY       0.067200
     92 H50          0.3980    -0.3460    -6.1310 hc         1 EGY       0.067200
     93 H51          2.7030     1.5770    -6.6150 hc         1 EGY       0.024700
     94 H52          1.1250     2.0110    -5.9430 hc         1 EGY       0.024700
     95 H53          1.6060     0.8100    -8.6940 hc         1 EGY       0.051700
     96 H54          0.0290     1.2450    -8.0220 hc         1 EGY       0.051700
     97 H55          2.3350     3.1660    -8.5080 hc         1 EGY       0.033200
     98 H56          0.7580     3.6010    -7.8360 hc         1 EGY       0.033200
     99 H57         -0.3390     2.8330    -9.9150 hc         1 EGY       0.046200
    100 H58          1.2390     2.3990   -10.5870 hc         1 EGY       0.046200
    101 H59          1.9660     4.7560   -10.4000 hc         1 EGY       0.038200
    102 H60          0.3890     5.1900    -9.7270 hc         1 EGY       0.038200
    103 H61         -0.7090     4.4240   -11.8070 hc         1 EGY       0.043700
    104 H62          0.8690     3.9900   -12.4790 hc         1 EGY       0.043700
    105 H63          0.0200     6.7800   -11.6190 hc         1 EGY       0.038700
    106 H64          1.5980     6.3450   -12.2910 hc         1 EGY       0.038700
    107 H65          0.5000     5.5790   -14.3710 hc         1 EGY       0.034033
    108 H66          0.1160     7.2740   -14.0410 hc         1 EGY       0.034033
    109 H67         -1.0780     6.0130   -13.6980 hc         1 EGY       0.034033
@<TRIPOS>BOND
     1    29    28 1
     2    27    28 1
     3    27    26 1
     4    26    25 1
     5    43    42 1
     6    25    24 1
     7    24    23 1
     8    42    41 1
     9    41    40 1
    10    23    22 1
    11    22    21 1
    12    40    39 1
    13    20    21 1
    14    20    19 1
    15    39    38 1
    16    38    37 1
    17    19    18 1
    18    37    36 1
    19    36    35 1
    20    18    17 1
    21    17    15 1
    22    35    34 1
    23    34    32 1
    24    15    14 1
    25    15    16 2
    26    14    13 1
    27    32    33 2
    28    32    31 1
    29     9     7 1
    30     8     7 1
    31    31    30 1
    32    13    30 1
    33    13    12 1
    34     3     2 1
    35     7    10 1
    36     7     6 1
    37    12    11 1
    38     4     2 1
    39     4     5 1
    40    11     2 1
    41     6     5 1
    42     2     1 1
    43     5    44 1
    44     5    45 1
    45     6    46 1
    46     6    47 1
    47     8    48 1
    48     8    49 1
    49     8    50 1
    50     9    51 1
    51     9    52 1
    52     9    53 1
    53    10    54 1
    54    10    55 1
    55    10    56 1
    56    12    57 1
    57    12    58 1
    58    13    59 1
    59    17    60 1
    60    17    61 1
    61    18    62 1
    62    18    63 1
    63    19    64 1
    64    19    65 1
    65    20    66 1
    66    20    67 1
    67    21    68 1
    68    21    69 1
    69    22    70 1
    70    22    71 1
    71    23    72 1
    72    23    73 1
    73    24    74 1
    74    24    75 1
    75    25    76 1
    76    25    77 1
    77    26    78 1
    78    26    79 1
    79    27    80 1
    80    27    81 1
    81    28    82 1
    82    28    83 1
    83    29    84 1
    84    29    85 1
    85    29    86 1
    86    30    87 1
    87    30    88 1
    88    34    89 1
    89    34    90 1
    90    35    91 1
    91    35    92 1
    92    36    93 1
    93    36    94 1
    94    37    95 1
    95    37    96 1
    96    38    97 1
    97    38    98 1
    98    39    99 1
    99    39   100 1
   100    40   101 1
   101    40   102 1
   102    41   103 1
   103    41   104 1
   104    42   105 1
   105    42   106 1
   106    43   107 1
   107    43   108 1
   108    43   109 1
@<TRIPOS>SUBSTRUCTURE
     1 EGY         1 TEMP              0 ****  ****    0 ROOT
