@<TRIPOS>MOLECULE
molecule
   30    31     1     0     0
SMALL
bcc


@<TRIPOS>ATOM
      1 C10          0.0000     0.0000     0.0000 c3         1 EH1      -0.009400
      2 C13          1.5310    -1.2490     2.1630 c3         1 EH1      -0.203400
      3 C15          1.5300     0.0000     0.0000 c3         1 EH1      -0.243400
      4 O01         -1.4030     0.8090    -6.3100 o          1 EH1      -0.833800
      5 O03         -3.1590    -0.3160    -5.6700 o          1 EH1      -0.833800
      6 C04         -1.4260     0.0010    -4.0310 ca         1 EH1      -0.125600
      7 C05         -2.1790    -0.6030    -3.0210 ca         1 EH1      -0.102500
      8 C06         -1.6390    -0.7600    -1.7550 ca         1 EH1      -0.155500
      9 C07         -0.5030     0.0010    -1.4200 ca         1 EH1      -0.104300
     10 C08          0.0420     0.8760    -2.3460 ca         1 EH1      -0.155500
     11 C09         -0.1400     0.4420    -3.7670 ca         1 EH1      -0.102500
     12 C11         -0.5100    -1.2490     0.7210 c3         1 EH1      -0.243400
     13 C12          0.0000    -1.2490     2.1640 c3         1 EH1      -0.015400
     14 C14          2.0410     0.0000     1.4420 c3         1 EH1      -0.015400
     15 H1          -0.3590     0.8830     0.5150 hc         1 EH1       0.045700
     16 H2           1.8810    -1.1320     3.1820 hc         1 EH1       0.047700
     17 H3           1.8820    -2.1960     1.7710 hc         1 EH1       0.047700
     18 H4           1.8800    -0.1430     1.0150 hc         1 EH1       0.089700
     19 H5           1.8800    -0.8180    -0.6180 hc         1 EH1       0.089700
     20 H7          -3.1840    -0.9480    -3.2270 ha         1 EH1       0.144500
     21 H8          -2.2010    -1.2790    -0.9880 ha         1 EH1       0.117500
     22 H9           0.7920     1.5930    -2.0370 ha         1 EH1       0.117500
     23 H10          0.4510     0.8930    -4.5550 ha         1 EH1       0.144500
     24 H11         -1.5870    -1.1820     0.8180 hc         1 EH1       0.089700
     25 H12         -0.2580    -2.1220     0.1320 hc         1 EH1       0.089700
     26 H13         -0.3500    -0.4360     2.7880 hc         1 EH1       0.055450
     27 H14         -0.3490    -2.1900     2.5720 hc         1 EH1       0.055450
     28 H15          1.7890     0.8730     2.0320 hc         1 EH1       0.055450
     29 H16          3.1180    -0.0670     1.3450 hc         1 EH1       0.055450
     30 C02         -1.9960     0.1110    -5.4450 c          1 EH1       0.897200
@<TRIPOS>BOND
     1     4    30 1
     2    30     5 1
     3    30     6 1
     4    11     6 ar
     5    11    10 ar
     6     6     7 ar
     7    10     9 ar
     8     3    14 1
     9     3     1 1
    10     7     8 ar
    11     9     8 ar
    12     9     1 1
    13    14     2 1
    14     1    12 1
    15     2    13 1
    16    12    13 1
    17     1    15 1
    18     2    16 1
    19     2    17 1
    20     3    18 1
    21     3    19 1
    22     7    20 1
    23     8    21 1
    24    10    22 1
    25    11    23 1
    26    12    24 1
    27    12    25 1
    28    13    26 1
    29    13    27 1
    30    14    28 1
    31    14    29 1
@<TRIPOS>SUBSTRUCTURE
     1 EH1         1 TEMP              0 ****  ****    0 ROOT
