@<TRIPOS>MOLECULE
molecule
   43    44     1     0     0
SMALL
bcc


@<TRIPOS>ATOM
      1 C1           0.0000     0.0000     0.0000 ca         1 EH9       0.777200
      2 C2           1.4050     0.0000     0.0000 ca         1 EH9      -0.162200
      3 C3           2.0680     0.0000     1.2390 ca         1 EH9       0.442800
      4 C5           0.0330    -0.0000     2.3080 ca         1 EH9       0.703900
      5 C14          3.5350    -0.0020    -0.4070 cc         1 EH9       0.425700
      6 N4           1.3490     0.0000     2.3560 nb         1 EH9      -0.755000
      7 N6          -0.6340     0.0060     1.1680 nb         1 EH9      -0.773000
      8 N13          3.4090    -0.0020     0.9500 na         1 EH9      -0.246000
      9 N15          2.3570    -0.0020    -0.9630 nd         1 EH9      -0.575100
     10 C20          4.5060    -0.0020     1.9210 c3         1 EH9       0.056000
     11 C21          5.3670     1.2470     1.7190 c3         1 EH9      -0.094400
     12 N24         -0.7080    -0.0000    -1.1890 nv         1 EH9      -1.073500
     13 C26          4.5430     2.4930     2.0500 c3         1 EH9      -0.084400
     14 C28          5.3670     3.7450     1.7410 c3         1 EH9      -0.081400
     15 C30          4.5430     4.9920     2.0710 c3         1 EH9      -0.081400
     16 C31          5.3670     6.2440     1.7630 c3         1 EH9      -0.084400
     17 C34          4.5430     7.4900     2.0930 c3         1 EH9      -0.092100
     18 C36          5.3640    -1.2520     1.7200 c3         1 EH9       0.132100
     19 O38          6.3930    -1.2870     2.7120 oh         1 EH9      -0.601800
     20 C40          4.4880    -2.4990     1.8490 c3         1 EH9      -0.123100
     21 H5          -0.5230     0.0050     3.2380 h5         1 EH9       0.063100
     22 H14          4.4750    -0.0030    -0.9450 h5         1 EH9       0.078800
     23 H20          4.0980    -0.0020     2.9250 h1         1 EH9       0.108700
     24 H211         6.2290     1.2000     2.3730 hc         1 EH9       0.057200
     25 H212         5.6970     1.2950     0.6890 hc         1 EH9       0.057200
     26 H241        -1.0020     0.8650    -1.5960 hn         1 EH9       0.444300
     27 H242        -0.9470    -0.8670    -1.6290 hn         1 EH9       0.444300
     28 H261         4.2800     2.4840     3.1000 hc         1 EH9       0.050200
     29 H262         3.6400     2.4980     1.4510 hc         1 EH9       0.050200
     30 H281         6.2700     3.7400     2.3400 hc         1 EH9       0.040700
     31 H282         5.6310     3.7540     0.6900 hc         1 EH9       0.040700
     32 H301         4.2790     4.9830     3.1220 hc         1 EH9       0.043700
     33 H302         3.6400     4.9970     1.4720 hc         1 EH9       0.043700
     34 H311         6.2690     6.2390     2.3610 hc         1 EH9       0.039700
     35 H312         5.6300     6.2530     0.7120 hc         1 EH9       0.039700
     36 H341         5.1290     8.3760     1.8800 hc         1 EH9       0.033367
     37 H342         3.6430     7.4980     1.4900 hc         1 EH9       0.033367
     38 H343         4.2740     7.4780     3.1420 hc         1 EH9       0.033367
     39 H36          5.8140    -1.2270     0.7350 h1         1 EH9       0.029700
     40 HO38         7.1290    -1.7780     2.3850 ho         1 EH9       0.410000
     41 H401         3.6850    -2.3060     2.5500 hc         1 EH9       0.049700
     42 H402         5.0890    -3.3270     2.2070 hc         1 EH9       0.049700
     43 H403         4.0700    -2.7480     0.8810 hc         1 EH9       0.049700
@<TRIPOS>BOND
     1    17    16 1
     2     4     7 ar
     3     4     6 ar
     4    16    15 1
     5    15    14 1
     6     7     1 ar
     7     6     3 ar
     8    20    18 1
     9    14    13 1
    10     1    12 1
    11     1     2 ar
    12    13    11 1
    13     3     2 ar
    14     3     8 1
    15     2     9 1
    16    18    10 1
    17    18    19 1
    18    11    10 1
    19     8    10 1
    20     8     5 1
    21     9     5 2
    22     4    21 1
    23     5    22 1
    24    10    23 1
    25    11    24 1
    26    11    25 1
    27    12    26 1
    28    12    27 1
    29    13    28 1
    30    13    29 1
    31    14    30 1
    32    14    31 1
    33    15    32 1
    34    15    33 1
    35    16    34 1
    36    16    35 1
    37    17    36 1
    38    17    37 1
    39    17    38 1
    40    18    39 1
    41    19    40 1
    42    20    41 1
    43    20    42 1
    44    20    43 1
@<TRIPOS>SUBSTRUCTURE
     1 EH9         1 TEMP              0 ****  ****    0 ROOT
