@<TRIPOS>MOLECULE
EHA
   69    73     1     0     0
SMALL
bcc


@<TRIPOS>ATOM
      1 CAN        -0.4760    0.5180   -0.4440 ca        1 EHA     -0.087500
      2 CAO         0.9000    0.5310   -0.6600 ca        1 EHA     -0.143500
      3 CAP         1.7680    0.8590    0.3820 ca        1 EHA     -0.109000
      4 CAQ         1.2580    1.1750    1.6410 ca        1 EHA     -0.143500
      5 CAR        -0.1180    1.1530    1.8650 ca        1 EHA     -0.087500
      6 CAL        -0.9920    0.8190    0.8240 ca        1 EHA     -0.165600
      7 CAK        -2.4600    0.8120    1.0240 c         1 EHA      0.591300
      8 OAM        -3.2250    1.1780    0.1190 o         1 EHA     -0.536100
      9 CAH        -2.9750    0.3560    2.3310 ca        1 EHA     -0.183600
     10 CAG        -2.3020   -0.5650    3.1030 ca        1 EHA     -0.056000
     11 CAI        -4.2240    0.8660    2.7830 ca        1 EHA     -0.085000
     12 CAJ        -4.7500    0.4660    3.9830 ca        1 EHA     -0.138000
     13 CAD        -4.0730   -0.4810    4.8070 ca        1 EHA      0.022000
     14 CAE        -4.6010   -0.9150    6.0560 ca        1 EHA     -0.115300
     15 CBK        -5.9100   -0.4080    6.5550 c3        1 EHA     -0.029100
     16 CBL        -5.7850    0.9660    7.1890 c3        1 EHA     -0.078400
     17 CBM        -7.1230    1.4720    7.6600 c3        1 EHA     -0.093100
     18 CAC        -2.8330   -0.9990    4.3470 ca        1 EHA     -0.087000
     19 CAB        -2.1320   -1.9450    5.1410 ca        1 EHA     -0.083000
     20 CAA        -2.6360   -2.3590    6.3470 ca        1 EHA     -0.184000
     21 CAF        -3.8750   -1.8400    6.8090 ca        1 EHA      0.148100
     22 OBJ        -4.4340   -2.2030    8.0170 os        1 EHA     -0.326900
     23 CBI        -3.7540   -3.2320    8.7520 c3        1 EHA      0.128400
     24 CBH        -4.6000   -3.4820    9.9870 c3        1 EHA     -0.095400
     25 CBG        -3.9780   -4.6050   10.8000 c3        1 EHA      0.133400
     26 OBF        -4.8080   -4.7830   11.9500 os        1 EHA     -0.348900
     27 CAS        -4.1250   -5.2870   13.0590 ca        1 EHA      0.054100
     28 CAX        -4.4280   -4.7100   14.2870 ca        1 EHA     -0.120000
     29 CAT        -3.2180   -6.3660   12.9260 ca        1 EHA     -0.191000
     30 CAU        -2.5920   -6.9040   14.0340 ca        1 EHA     -0.081000
     31 CAV        -2.8990   -6.3570   15.2950 ca        1 EHA     -0.059200
     32 CAW        -3.8210   -5.2440   15.4270 ca        1 EHA     -0.087800
     33 CBA        -3.8740   -4.9240   16.8280 cc        1 EHA     -0.239200
     34 CAZ        -3.0210   -5.8200   17.4820 cd        1 EHA     -0.102100
     35 N          -2.4340   -6.6930   16.5700 na        1 EHA     -0.006400
     36 CA         -1.5780   -7.7950   16.9070 c3        1 EHA     -0.110700
     37 C          -0.1500   -7.7640   16.2630 c         1 EHA      0.915600
     38 OXT         0.7880   -7.3500   16.9910 o         1 EHA     -0.819800
     39 O          -0.0390   -8.2140   15.0920 o         1 EHA     -0.819800
     40 HAN        -1.1710    0.2780   -1.2650 ha        1 EHA      0.147500
     41 HAO         1.3010    0.2860   -1.6550 ha        1 EHA      0.135000
     42 HAP         2.8550    0.8720    0.2100 ha        1 EHA      0.132000
     43 HAQ         1.9410    1.4410    2.4610 ha        1 EHA      0.135000
     44 HAR        -0.5200    1.4030    2.8590 ha        1 EHA      0.147500
     45 HAG        -1.3400   -0.9860    2.7660 ha        1 EHA      0.139000
     46 HAI        -4.7560    1.5840    2.1390 ha        1 EHA      0.148000
     47 HAJ        -5.7110    0.8780    4.3250 ha        1 EHA      0.142000
     48 HBK1       -6.6490   -0.3700    5.7100 hc        1 EHA      0.055200
     49 HBK2       -6.3250   -1.1230    7.3170 hc        1 EHA      0.055200
     50 HBL1       -5.3460    1.6840    6.4470 hc        1 EHA      0.044200
     51 HBL2       -5.0750    0.9080    8.0560 hc        1 EHA      0.044200
     52 HBM1       -7.8380    1.5560    6.8060 hc        1 EHA      0.031367
     53 HBM2       -7.5620    0.7780    8.4170 hc        1 EHA      0.031367
     54 HBM3       -7.0120    2.4800    8.1280 hc        1 EHA      0.031367
     55 HAB        -1.1730   -2.3410    4.7720 ha        1 EHA      0.135000
     56 HAA        -2.0800   -3.0890    6.9530 ha        1 EHA      0.146000
     57 HBI1       -3.6750   -4.1550    8.1210 h1        1 EHA      0.042200
     58 HBI2       -2.7290   -2.8720    9.0340 h1        1 EHA      0.042200
     59 HBH1       -5.6440   -3.7570    9.6900 hc        1 EHA      0.067700
     60 HBH2       -4.6640   -2.5510   10.6060 hc        1 EHA      0.067700
     61 HBG1       -2.9270   -4.3520   11.0980 h1        1 EHA      0.038200
     62 HBG2       -3.9750   -5.5640   10.2170 h1        1 EHA      0.038200
     63 HAX        -5.1280   -3.8690   14.3580 ha        1 EHA      0.129000
     64 HAT        -3.0070   -6.7710   11.9270 ha        1 EHA      0.121000
     65 HAU        -1.8400   -7.7120   13.9600 ha        1 EHA      0.199000
     66 HBA        -4.4580   -4.1340   17.2840 ha        1 EHA      0.137000
     67 HAZ        -2.7800   -5.8890   18.5450 h4        1 EHA      0.156000
     68 HA1        -1.4540   -7.8110   18.0240 h1        1 EHA      0.040700
     69 HA2        -2.0810   -8.7460   16.5750 h1        1 EHA      0.040700
@<TRIPOS>BOND
     1    1    2 ar  
     2    1    6 ar  
     3    1   40 1   
     4    2    3 ar  
     5    2   41 1   
     6    3    4 ar  
     7    3   42 1   
     8    4    5 ar  
     9    4   43 1   
    10    5    6 ar  
    11    5   44 1   
    12    6    7 1   
    13    7    8 2   
    14    7    9 1   
    15    9   10 ar  
    16    9   11 ar  
    17   10   18 ar  
    18   10   45 1   
    19   11   12 ar  
    20   11   46 1   
    21   12   13 ar  
    22   12   47 1   
    23   13   14 ar  
    24   13   18 ar  
    25   14   15 1   
    26   14   21 ar  
    27   15   16 1   
    28   15   48 1   
    29   15   49 1   
    30   16   17 1   
    31   16   50 1   
    32   16   51 1   
    33   17   52 1   
    34   17   53 1   
    35   17   54 1   
    36   18   19 ar  
    37   19   20 ar  
    38   19   55 1   
    39   20   21 ar  
    40   20   56 1   
    41   21   22 1   
    42   22   23 1   
    43   23   24 1   
    44   23   57 1   
    45   23   58 1   
    46   24   25 1   
    47   24   59 1   
    48   24   60 1   
    49   25   26 1   
    50   25   61 1   
    51   25   62 1   
    52   26   27 1   
    53   27   28 ar  
    54   27   29 ar  
    55   28   32 ar  
    56   28   63 1   
    57   29   30 ar  
    58   29   64 1   
    59   30   31 ar  
    60   30   65 1   
    61   31   32 ar  
    62   31   35 1   
    63   32   33 1   
    64   33   34 2   
    65   33   66 1   
    66   34   35 1   
    67   34   67 1   
    68   35   36 1   
    69   36   37 1   
    70   36   68 1   
    71   36   69 1   
    72   37   38 1   
    73   37   39 1   
@<TRIPOS>SUBSTRUCTURE
     1 EHA         1 TEMP              0 ****  ****    0 ROOT
