@<TRIPOS>MOLECULE
molecule
   69    73     1     0     0
SMALL
bcc


@<TRIPOS>ATOM
      1 CAN          0.0000     0.0000     0.0000 ca         1 EHA      -0.084000
      2 CAO          1.3800     0.0000     0.0000 ca         1 EHA      -0.145000
      3 CAP          2.0760     0.0000     1.1960 ca         1 EHA      -0.102000
      4 CAQ          1.3930    -0.0010     2.4010 ca         1 EHA      -0.145000
      5 CAR          0.0140     0.0040     2.4160 ca         1 EHA      -0.084000
      6 CAL         -0.6940    -0.0010     1.2110 ca         1 EHA      -0.172600
      7 CAK         -2.1720    -0.0020     1.2200 c          1 EHA       0.592300
      8 OAM         -2.7860     0.1390     0.1800 o          1 EHA      -0.533100
      9 CAH         -2.9020    -0.1740     2.4900 ca         1 EHA      -0.177600
     10 CAG         -2.3790    -0.9930     3.4800 ca         1 EHA      -0.071000
     11 CAI         -4.1260     0.4940     2.6890 ca         1 EHA      -0.079000
     12 CAJ         -4.8150     0.3510     3.8490 ca         1 EHA      -0.135000
     13 CAD         -4.3110    -0.4770     4.8710 ca         1 EHA       0.020000
     14 CAE         -5.0050    -0.6320     6.0800 ca         1 EHA      -0.122300
     15 CBK         -6.3160     0.0790     6.2990 c3         1 EHA      -0.025100
     16 CBL         -6.0540     1.4480     6.9310 c3         1 EHA      -0.080400
     17 CBM         -7.3830     2.1710     7.1540 c3         1 EHA      -0.092100
     18 CAC         -3.0780    -1.1510     4.6860 ca         1 EHA      -0.081000
     19 CAB         -2.5750    -1.9730     5.7110 ca         1 EHA      -0.079000
     20 CAA         -3.2710    -2.1110     6.8710 ca         1 EHA      -0.202000
     21 CAF         -4.4850    -1.4450     7.0630 ca         1 EHA       0.137100
     22 OBJ         -5.1590    -1.6010     8.2320 os         1 EHA      -0.291900
     23 CBI         -4.3830    -2.4860     9.0410 c3         1 EHA       0.112400
     24 CBH         -5.0900    -2.7050    10.3790 c3         1 EHA      -0.093400
     25 CBG         -4.2590    -3.6540    11.2460 c3         1 EHA       0.126400
     26 OBF         -4.9200    -3.8600    12.4960 os         1 EHA      -0.310900
     27 CAS         -4.1390    -4.7060    13.2200 ca         1 EHA       0.061100
     28 CAX         -4.5260    -5.0840    14.4900 ca         1 EHA      -0.120000
     29 CAT         -2.9480    -5.1840    12.6780 ca         1 EHA      -0.220000
     30 CAU         -2.1460    -6.0410    13.3970 ca         1 EHA      -0.079000
     31 CAV         -2.5210    -6.4380    14.6760 ca         1 EHA      -0.036200
     32 CAW         -3.7230    -5.9570    15.2260 ca         1 EHA      -0.077800
     33 CBA         -3.8250    -6.5530    16.5590 cc         1 EHA      -0.251200
     34 CAZ         -2.7370    -7.3200    16.7320 cd         1 EHA      -0.062100
     35 N           -1.9460    -7.2640    15.6180 na         1 EHA      -0.014400
     36 CA          -0.6760    -7.9760    15.4510 c3         1 EHA      -0.077700
     37 C            0.4640    -7.0650    15.8280 c          1 EHA       0.870600
     38 OXT          1.7290    -7.5070    15.7520 o          1 EHA      -0.826800
     39 O            0.2380    -5.9370    16.1980 o          1 EHA      -0.826800
     40 HAN         -0.5430    -0.0020    -0.9370 ha         1 EHA       0.150500
     41 HAO          1.9200     0.0010    -0.9390 ha         1 EHA       0.133500
     42 HAP          3.1590    -0.0020     1.1900 ha         1 EHA       0.130000
     43 HAQ          1.9430     0.0010     3.3340 ha         1 EHA       0.133500
     44 HAR         -0.5180     0.0030     3.3590 ha         1 EHA       0.150500
     45 HAG         -1.5130    -1.6090     3.2710 ha         1 EHA       0.143000
     46 HAI         -4.5220     1.1290     1.9060 ha         1 EHA       0.143000
     47 HAJ         -5.7560     0.8710     3.9870 ha         1 EHA       0.142000
     48 HBK1        -6.8180     0.2110     5.3480 hc         1 EHA       0.053700
     49 HBK2        -6.9410    -0.5100     6.9590 hc         1 EHA       0.053700
     50 HBL1        -5.4290     2.0370     6.2700 hc         1 EHA       0.046700
     51 HBL2        -5.5500     1.3160     7.8810 hc         1 EHA       0.046700
     52 HBM1        -8.0050     1.5850     7.8200 hc         1 EHA       0.031700
     53 HBM2        -7.1960     3.1420     7.5950 hc         1 EHA       0.031700
     54 HBM3        -7.8890     2.2970     6.2050 hc         1 EHA       0.031700
     55 HAB         -1.6350    -2.4950     5.5760 ha         1 EHA       0.136000
     56 HAA         -2.8790    -2.7450     7.6570 ha         1 EHA       0.151000
     57 HBI1        -4.2710    -3.4360     8.5320 h1         1 EHA       0.043700
     58 HBI2        -3.4050    -2.0530     9.2150 h1         1 EHA       0.043700
     59 HBH1        -5.2010    -1.7560    10.8890 hc         1 EHA       0.064200
     60 HBH2        -6.0670    -3.1390    10.2050 hc         1 EHA       0.064200
     61 HBG1        -3.2820    -3.2210    11.4210 h1         1 EHA       0.040700
     62 HBG2        -4.1470    -4.6040    10.7360 h1         1 EHA       0.040700
     63 HAX         -5.4990    -4.7930    14.8690 ha         1 EHA       0.126000
     64 HAT         -2.6500    -4.8790    11.6820 ha         1 EHA       0.121000
     65 HAU         -1.2210    -6.4070    12.9660 ha         1 EHA       0.136000
     66 HBA         -4.6270    -6.4030    17.2720 ha         1 EHA       0.135000
     67 HAZ         -2.5190    -7.8970    17.6220 h4         1 EHA       0.157000
     68 HA1         -0.5670    -8.2820    14.4180 h1         1 EHA       0.049700
     69 HA2         -0.6660    -8.8510    16.0900 h1         1 EHA       0.049700
@<TRIPOS>BOND
     1     1     2 ar
     2     1     6 ar
     3     1    40 1
     4     2     3 ar
     5     2    41 1
     6     3     4 ar
     7     3    42 1
     8     4     5 ar
     9     4    43 1
    10     5     6 ar
    11     5    44 1
    12     6     7 1
    13     7     8 2
    14     7     9 1
    15     9    10 ar
    16     9    11 ar
    17    10    18 ar
    18    10    45 1
    19    11    12 ar
    20    11    46 1
    21    12    13 ar
    22    12    47 1
    23    13    14 ar
    24    13    18 ar
    25    14    15 1
    26    14    21 ar
    27    15    16 1
    28    15    48 1
    29    15    49 1
    30    16    17 1
    31    16    50 1
    32    16    51 1
    33    17    52 1
    34    17    53 1
    35    17    54 1
    36    18    19 ar
    37    19    20 ar
    38    19    55 1
    39    20    21 ar
    40    20    56 1
    41    21    22 1
    42    22    23 1
    43    23    24 1
    44    23    57 1
    45    23    58 1
    46    24    25 1
    47    24    59 1
    48    24    60 1
    49    25    26 1
    50    25    61 1
    51    25    62 1
    52    26    27 1
    53    27    28 ar
    54    27    29 ar
    55    28    32 ar
    56    28    63 1
    57    29    30 ar
    58    29    64 1
    59    30    31 ar
    60    30    65 1
    61    31    32 ar
    62    31    35 1
    63    32    33 1
    64    33    34 2
    65    33    66 1
    66    34    35 1
    67    34    67 1
    68    35    36 1
    69    36    37 1
    70    36    68 1
    71    36    69 1
    72    37    38 1
    73    37    39 1
@<TRIPOS>SUBSTRUCTURE
     1 EHA         1 TEMP              0 ****  ****    0 ROOT
