@<TRIPOS>MOLECULE
molecule
   29    30     1     0     0
SMALL
bcc


@<TRIPOS>ATOM
      1 N            0.0000     0.0000     0.0000 na         1 EHB      -0.112400
      2 O           -1.7520    -0.0030     3.6470 o          1 EHB      -0.586100
      3 S            0.6290    -0.0010     2.4290 ss         1 EHB      -0.012500
      4 C1           3.6100     0.0000    -0.9410 ca         1 EHB       0.138100
      5 C2           2.2420    -0.0000    -1.1100 ca         1 EHB      -0.175000
      6 C3           1.3820     0.0000     0.0000 ca         1 EHB       0.010800
      7 C4           1.9640     0.0000     1.2690 ca         1 EHB      -0.091100
      8 C5           3.3380    -0.0000     1.4340 ca         1 EHB      -0.045000
      9 C6           4.1680    -0.0000     0.3320 ca         1 EHB      -0.170000
     10 C7          -0.6410    -0.0010     1.1940 cc         1 EHB       0.197500
     11 C8          -2.0140    -0.0010     1.4060 cf         1 EHB      -0.397200
     12 C9          -2.5150    -0.0020     2.6970 c          1 EHB       0.582300
     13 C10         -4.0040    -0.0020     2.9280 c3         1 EHB      -0.181100
     14 C11         -0.7510     0.0060    -1.2580 c3         1 EHB       0.036300
     15 C12         -1.0130    -1.4350    -1.7030 c3         1 EHB      -0.117100
     16 O13          4.4220    -0.0000    -2.0310 oh         1 EHB      -0.519100
     17 H2           1.8250    -0.0000    -2.1100 ha         1 EHB       0.143000
     18 H5           3.7630    -0.0010     2.4310 ha         1 EHB       0.146000
     19 H6           5.2440     0.0000     0.4570 ha         1 EHB       0.149000
     20 H8          -2.6930     0.0010     0.5620 ha         1 EHB       0.141000
     21 H10         -4.2040     0.0260     3.9920 hc         1 EHB       0.054367
     22 H10A        -4.4430     0.8680     2.4540 hc         1 EHB       0.054367
     23 H10B        -4.4350    -0.9010     2.5030 hc         1 EHB       0.054367
     24 H11         -1.6960     0.5160    -1.1120 h1         1 EHB       0.065200
     25 H11A        -0.1770     0.5200    -2.0190 h1         1 EHB       0.065200
     26 H12         -0.6380    -2.1190    -0.9510 hc         1 EHB       0.048367
     27 H12A        -2.0790    -1.5860    -1.8290 hc         1 EHB       0.048367
     28 H12B        -0.5080    -1.6200    -2.6430 hc         1 EHB       0.048367
     29 HO13         4.6080    -0.8890    -2.2840 ho         1 EHB       0.423000
@<TRIPOS>BOND
     1     1     6 1
     2     1    10 1
     3     1    14 1
     4     2    12 2
     5     3     7 1
     6     3    10 1
     7     4     5 ar
     8     4     9 ar
     9     4    16 1
    10     5     6 ar
    11     6     7 ar
    12     7     8 ar
    13     8     9 ar
    14    10    11 2
    15    11    12 1
    16    12    13 1
    17    14    15 1
    18     5    17 1
    19     8    18 1
    20     9    19 1
    21    11    20 1
    22    13    21 1
    23    13    22 1
    24    13    23 1
    25    14    24 1
    26    14    25 1
    27    15    26 1
    28    15    27 1
    29    15    28 1
    30    16    29 1
@<TRIPOS>SUBSTRUCTURE
     1 EHB         1 TEMP              0 ****  ****    0 ROOT
