@<TRIPOS>MOLECULE
EHB
   29    30     1     0     0
SMALL
bcc


@<TRIPOS>ATOM
      1 N            0.0000     0.0000     0.0000 na         1 EHB       0.322600
      2 O           -1.7520    -0.0030     3.6470 o          1 EHB      -0.595100
      3 S            0.6290    -0.0010     2.4290 ss         1 EHB      -0.158500
      4 C1           3.6100     0.0000    -0.9410 ca         1 EHB       0.160100
      5 C2           2.2420    -0.0000    -1.1100 ca         1 EHB      -0.161000
      6 C3           1.3820     0.0000     0.0000 ca         1 EHB      -0.138200
      7 C4           1.9640     0.0000     1.2690 ca         1 EHB      -0.046100
      8 C5           3.3380    -0.0000     1.4340 ca         1 EHB       0.007000
      9 C6           4.1680    -0.0000     0.3320 ca         1 EHB      -0.157000
     10 C7          -0.6410    -0.0010     1.1940 cc         1 EHB       0.098500
     11 C8          -2.0140    -0.0010     1.4060 cf         1 EHB      -0.377200
     12 C9          -2.5150    -0.0020     2.6970 c          1 EHB       0.621300
     13 C10         -4.0040    -0.0020     2.9280 c3         1 EHB      -0.079100
     14 C11         -0.7510     0.0060    -1.2580 c3         1 EHB      -0.053700
     15 C12         -1.0130    -1.4350    -1.7030 c3         1 EHB      -0.017100
     16 O13          4.4220    -0.0000    -2.0310 oh         1 EHB      -0.500100
     17 H2           1.8250    -0.0000    -2.1100 ha         1 EHB       0.122000
     18 H5           3.7630    -0.0010     2.4310 ha         1 EHB       0.115000
     19 H6           5.2440     0.0000     0.4570 ha         1 EHB       0.122000
     20 H8          -2.6930     0.0010     0.5620 ha         1 EHB       0.130000
     21 H10         -4.4360    -0.8990     2.5010 hc         1 EHB       0.018700
     22 H10A        -4.2040     0.0240     3.9920 hc         1 EHB       0.018700
     23 H10B        -4.4420     0.8690     2.4560 hc         1 EHB       0.018700
     24 H11         -1.6960     0.5160    -1.1120 h1         1 EHB       0.039700
     25 H11A        -0.1770     0.5200    -2.0190 h1         1 EHB       0.039700
     26 H12         -0.6370    -2.1190    -0.9510 hc         1 EHB       0.014700
     27 H12A        -0.5090    -1.6200    -2.6440 hc         1 EHB       0.014700
     28 H12B        -2.0790    -1.5860    -1.8280 hc         1 EHB       0.014700
     29 HO13         4.6090    -0.8890    -2.2840 ho         1 EHB       0.406000
@<TRIPOS>BOND
     1     1     6 1   
     2     1    10 1   
     3     1    14 1   
     4     2    12 2   
     5     3     7 1   
     6     3    10 1   
     7     4     5 ar  
     8     4     9 ar  
     9     4    16 1   
    10     5     6 ar  
    11     5    17 1   
    12     6     7 ar  
    13     7     8 ar  
    14     8     9 ar  
    15     8    18 1   
    16     9    19 1   
    17    10    11 2   
    18    11    12 1   
    19    11    20 1   
    20    12    13 1   
    21    13    21 1   
    22    13    22 1   
    23    13    23 1   
    24    14    15 1   
    25    14    24 1   
    26    14    25 1   
    27    15    26 1   
    28    15    27 1   
    29    15    28 1   
    30    16    29 1   
@<TRIPOS>SUBSTRUCTURE
     1 EHB         1 TEMP              0 ****  ****    0 ROOT
