@<TRIPOS>MOLECULE
EHD
   42    46     1     0     0
SMALL
bcc


@<TRIPOS>ATOM
      1 O18        -0.0000    0.1830   -0.0600 o         1 EHD     -0.636500
      2 C14         1.2440    0.1260   -0.0260 c         1 EHD      0.714700
      3 C15         2.0530    0.0920    1.2010 cc        1 EHD     -0.239400
      4 C19         1.3320    0.1190    2.4990 c3        1 EHD      0.184600
      5 O22         1.9850   -0.6450    3.5220 os        1 EHD     -0.394900
      6 C20         3.3490   -0.7290    3.5000 c         1 EHD      0.687600
      7 O23         3.8090   -1.4850    4.3550 o         1 EHD     -0.568500
      8 C16         3.4200    0.0340    1.1600 cd        1 EHD     -0.019200
      9 C17         4.1200   -0.0100   -0.0850 cd        1 EHD     -0.164000
     10 C21         4.1750    0.0330    2.4670 c3        1 EHD      0.121000
     11 O24         5.4580   -0.5550    2.3160 oh        1 EHD     -0.568800
     12 C25         4.4060    1.4820    2.9330 c3        1 EHD     -0.063400
     13 C31         5.1350    1.5470    4.2490 c3        1 EHD     -0.101100
     14 N12         1.9750    0.0940   -1.2190 n         1 EHD     -0.352000
     15 C11         1.4110    0.1020   -2.5720 c3        1 EHD      0.145300
     16 C8          2.6130    0.0310   -3.4740 ca        1 EHD     -0.222600
     17 C7          2.7360    0.0080   -4.8290 ca        1 EHD     -0.055000
     18 C6          4.0560   -0.0640   -5.3800 ca        1 EHD     -0.135300
     19 C5          5.1820   -0.1080   -4.4970 ca        1 EHD      0.390600
     20 N10         5.0490   -0.0840   -3.1130 nb        1 EHD     -0.610000
     21 C9          3.8180   -0.0180   -2.6510 ca        1 EHD      0.453100
     22 C13         3.3760    0.0200   -1.2340 cc        1 EHD     -0.011200
     23 C1          4.2650   -0.0920   -6.7800 ca        1 EHD     -0.114000
     24 C2          5.5380   -0.1610   -7.2960 ca        1 EHD     -0.116000
     25 C3          6.6540   -0.2050   -6.4310 ca        1 EHD     -0.120000
     26 C4          6.4920   -0.1800   -5.0670 ca        1 EHD     -0.159300
     27 H191        1.2310    1.1750    2.8720 h1        1 EHD      0.087200
     28 H192        0.3140   -0.3560    2.4180 h1        1 EHD      0.087200
     29 H17         5.2180   -0.0690   -0.1020 ha        1 EHD      0.189000
     30 H24         5.3740   -1.5040    2.4860 ho        1 EHD      0.426000
     31 H251        5.0050    2.0030    2.1400 hc        1 EHD      0.060200
     32 H252        3.4070    1.9860    3.0100 hc        1 EHD      0.060200
     33 H311        6.1350    1.0560    4.1610 hc        1 EHD      0.049033
     34 H312        5.2810    2.6120    4.5510 hc        1 EHD      0.049033
     35 H313        4.5580    1.0220    5.0490 hc        1 EHD      0.049033
     36 H111        0.8180    1.0450   -2.7290 h1        1 EHD      0.087200
     37 H112        0.7280   -0.7810   -2.7040 h1        1 EHD      0.087200
     38 H7          1.8690    0.0420   -5.5050 ha        1 EHD      0.149000
     39 H1          3.3890   -0.0570   -7.4460 ha        1 EHD      0.139000
     40 H2          5.7000   -0.1830   -8.3840 ha        1 EHD      0.140000
     41 H3          7.6640   -0.2610   -6.8660 ha        1 EHD      0.141000
     42 H4          7.3650   -0.2150   -4.3960 ha        1 EHD      0.156000
@<TRIPOS>BOND
     1    1    2 2
     2    2    3 1
     3    2   14 1
     4    3    4 1
     5    3    8 2
     6    4    5 1
     7    4   27 1
     8    4   28 1
     9    5    6 1
    10    6    7 2
    11    6   10 1
    12    8    9 1
    13    8   10 1
    14    9   22 2
    15    9   29 1
    16   10   11 1
    17   10   12 1
    18   11   30 1
    19   12   13 1
    20   12   31 1
    21   12   32 1
    22   13   33 1
    23   13   34 1
    24   13   35 1
    25   14   15 1
    26   14   22 1
    27   15   16 1
    28   15   36 1
    29   15   37 1
    30   16   17 ar
    31   16   21 ar
    32   17   18 ar
    33   17   38 1
    34   18   19 ar
    35   18   23 ar
    36   19   20 ar
    37   19   26 ar
    38   20   21 ar
    39   21   22 1
    40   23   24 ar
    41   23   39 1
    42   24   25 ar
    43   24   40 1
    44   25   26 ar
    45   25   41 1
    46   26   42 1
@<TRIPOS>SUBSTRUCTURE
     1 EHD         1 TEMP              0 ****  ****    0 ROOT
