@<TRIPOS>MOLECULE
EHF
   44    47     1     0     0
SMALL
bcc


@<TRIPOS>ATOM
      1 C1           0.0000     0.0000     0.0000 ca         1 EHF      -0.110000
      2 C2           1.3930     0.0000     0.0000 ca         1 EHF      -0.106000
      3 C3           2.0960     0.0000     1.1650 ca         1 EHF      -0.135300
      4 C4           1.4100     0.0030     2.3950 ca         1 EHF       0.378600
      5 C5          -0.0080     0.0030     2.3900 ca         1 EHF      -0.154300
      6 C6          -0.6990     0.0010     1.1700 ca         1 EHF      -0.082000
      7 N7           2.0760     0.0030     3.5500 nb         1 EHF      -0.536000
      8 C8           1.4420     0.0040     4.7120 ca         1 EHF       0.467100
      9 C9           0.0380     0.0040     4.7650 ca         1 EHF      -0.232600
     10 C10         -0.6950     0.0050     3.6210 ca         1 EHF      -0.042000
     11 C11          1.9580     0.0040     6.1020 cc         1 EHF      -0.263200
     12 N12          0.9140     0.0060     6.9830 n          1 EHF       0.092000
     13 C13         -0.3430     0.0060     6.2230 c3         1 EHF       0.107300
     14 C14          3.2550     0.0030     6.5710 cd         1 EHF      -0.074000
     15 C15          3.5010     0.0030     7.9470 cd         1 EHF       0.055800
     16 C16          2.4480     0.0040     8.8160 cc         1 EHF      -0.208400
     17 C17          1.1360     0.0060     8.3130 c          1 EHF       0.623700
     18 O18          0.1920     0.0080     9.0860 o          1 EHF      -0.757500
     19 C19          2.6920     0.0030    10.3030 c3         1 EHF       0.283600
     20 C20          4.9160     0.0010     8.4670 c3         1 EHF       0.111000
     21 C21          5.2020    -1.3180     9.1380 c          1 EHF       0.991600
     22 O22          4.3680    -2.3560     8.9640 o          1 EHF      -0.889800
     23 O23          6.1830    -1.4420     9.8320 o          1 EHF      -0.889800
     24 O24          5.8230     0.1890     7.3800 oh         1 EHF      -0.611800
     25 C25          5.0890     1.1350     9.4790 c3         1 EHF      -0.043400
     26 C26          6.2250     0.7890    10.4430 c3         1 EHF      -0.018100
     27 O27          3.9770    -0.5600    10.5750 oh         1 EHF      -0.529800
     28 H1          -0.5350    -0.0000    -0.9420 ha         1 EHF       0.096000
     29 H2           1.9260    -0.0010    -0.9430 ha         1 EHF       0.098000
     30 H3           3.1790     0.0000     1.1460 ha         1 EHF       0.118000
     31 H4          -1.7820     0.0010     1.1570 ha         1 EHF       0.101000
     32 H5          -1.7490    -0.2440     3.6530 ha         1 EHF       0.109000
     33 H6          -0.8980     0.9080     6.4480 h1         1 EHF       0.036700
     34 H7           4.0830     0.0020     5.8730 ha         1 EHF       0.136000
     35 H9           1.9270    -0.5870    10.7930 h1         1 EHF      -0.005800
     36 H10          2.6570     1.0200    10.6740 h1         1 EHF      -0.005800
     37 H12          6.2100    -0.6380     7.1470 ho         1 EHF       0.401000
     38 H13          4.1700     1.2660    10.0360 hc         1 EHF       0.016700
     39 H14          5.3280     2.0530     8.9550 hc         1 EHF       0.016700
     40 H15          7.0530     0.3640     9.8890 hc         1 EHF       0.012033
     41 H16          5.8730     0.0710    11.1730 hc         1 EHF       0.012033
     42 H17          6.5540     1.6880    10.9500 hc         1 EHF       0.012033
     43 H18          3.9420    -1.0490    11.3800 ho         1 EHF       0.382000
     44 H8          -0.8990    -0.8960     6.4500 h1         1 EHF       0.036700
@<TRIPOS>BOND
     1     1     2 ar  
     2     1     6 ar  
     3     1    28 1   
     4     2     3 ar  
     5     2    29 1   
     6     3     4 ar  
     7     3    30 1   
     8     4     5 ar  
     9     4     7 ar  
    10     5     6 ar  
    11     5    10 ar  
    12     6    31 1   
    13     7     8 ar  
    14     8     9 ar  
    15     8    11 1   
    16     9    10 ar  
    17     9    13 1   
    18    10    32 1   
    19    11    12 1   
    20    11    14 2   
    21    12    13 1   
    22    12    17 1   
    23    13    33 1   
    24    13    44 1   
    25    14    15 1   
    26    14    34 1   
    27    15    16 2   
    28    15    20 1   
    29    16    17 1   
    30    16    19 1   
    31    17    18 2   
    32    19    27 1   
    33    19    35 1   
    34    19    36 1   
    35    20    21 1   
    36    20    24 1   
    37    20    25 1   
    38    21    22 1   
    39    21    23 1   
    40    24    37 1   
    41    25    26 1   
    42    25    38 1   
    43    25    39 1   
    44    26    40 1   
    45    26    41 1   
    46    26    42 1   
    47    27    43 1   
@<TRIPOS>SUBSTRUCTURE
     1 EHF         1 TEMP              0 ****  ****    0 ROOT
