@<TRIPOS>MOLECULE
molecule
   44    47     1     0     0
SMALL
bcc


@<TRIPOS>ATOM
      1 C1           0.0000     0.0000     0.0000 ca         1 EHF      -0.137000
      2 C2           1.3930     0.0000     0.0000 ca         1 EHF      -0.129000
      3 C3           2.0960     0.0000     1.1650 ca         1 EHF      -0.158300
      4 C4           1.4100     0.0030     2.3950 ca         1 EHF       0.431600
      5 C5          -0.0080     0.0030     2.3900 ca         1 EHF      -0.159300
      6 C6          -0.6990     0.0010     1.1700 ca         1 EHF      -0.109000
      7 N7           2.0760     0.0030     3.5500 nb         1 EHF      -0.665000
      8 C8           1.4420     0.0040     4.7120 ca         1 EHF       0.512100
      9 C9           0.0380     0.0040     4.7650 ca         1 EHF      -0.231600
     10 C10         -0.6950     0.0050     3.6210 ca         1 EHF      -0.070000
     11 C11          1.9580     0.0040     6.1020 cc         1 EHF      -0.099200
     12 N12          0.9140     0.0060     6.9830 n          1 EHF      -0.329000
     13 C13         -0.3430     0.0060     6.2230 c3         1 EHF       0.153300
     14 C14          3.2550     0.0030     6.5710 cd         1 EHF      -0.108000
     15 C15          3.5010     0.0030     7.9470 cd         1 EHF       0.060800
     16 C16          2.4480     0.0040     8.8160 cc         1 EHF      -0.201400
     17 C17          1.1360     0.0060     8.3130 c          1 EHF       0.715700
     18 O18          0.1920     0.0080     9.0860 o          1 EHF      -0.700500
     19 C19          2.6920     0.0030    10.3030 c3         1 EHF       0.208600
     20 C20          4.9160     0.0010     8.4670 c3         1 EHF       0.088000
     21 C21          5.2020    -1.3180     9.1380 c          1 EHF       0.912600
     22 O22          4.3680    -2.3560     8.9640 o          1 EHF      -0.843300
     23 O23          6.1830    -1.4420     9.8320 o          1 EHF      -0.843300
     24 O24          5.8230     0.1890     7.3800 oh         1 EHF      -0.625800
     25 C25          5.0890     1.1350     9.4790 c3         1 EHF      -0.055400
     26 C26          6.2250     0.7890    10.4430 c3         1 EHF      -0.064100
     27 O27          3.9770    -0.5600    10.5750 oh         1 EHF      -0.549800
     28 H1          -0.5350    -0.0000    -0.9420 ha         1 EHF       0.122000
     29 H2           1.9260    -0.0010    -0.9430 ha         1 EHF       0.126000
     30 H3           3.1790     0.0000     1.1460 ha         1 EHF       0.150000
     31 H4          -1.7820     0.0010     1.1570 ha         1 EHF       0.127000
     32 H5          -1.7490    -0.2440     3.6530 ha         1 EHF       0.136000
     33 H6          -0.8980     0.9080     6.4480 h1         1 EHF       0.071200
     34 H7           4.0830     0.0020     5.8730 ha         1 EHF       0.168000
     35 H9           1.9270    -0.5870    10.7930 h1         1 EHF       0.029200
     36 H10          2.6570     1.0200    10.6740 h1         1 EHF       0.029200
     37 H12          6.2100    -0.6380     7.1470 ho         1 EHF       0.409000
     38 H13          4.1700     1.2660    10.0360 hc         1 EHF       0.030200
     39 H14          5.3280     2.0530     8.9550 hc         1 EHF       0.030200
     40 H15          7.0530     0.3640     9.8890 hc         1 EHF       0.031367
     41 H16          5.8730     0.0710    11.1730 hc         1 EHF       0.031367
     42 H17          6.5540     1.6880    10.9500 hc         1 EHF       0.031367
     43 H18          3.9420    -1.0490    11.3800 ho         1 EHF       0.399000
     44 H8          -0.8990    -0.8960     6.4500 h1         1 EHF       0.071200
@<TRIPOS>BOND
     1     1     6 ar
     2     1     2 ar
     3     6     5 ar
     4     2     3 ar
     5     5    10 ar
     6     5     4 ar
     7     3     4 ar
     8    10     9 ar
     9     4     7 ar
    10     9     8 ar
    11     9    13 1
    12     7     8 ar
    13     8    11 1
    14    13    12 1
    15    11    12 1
    16    11    14 2
    17    12    17 1
    18    14    15 1
    19    26    25 1
    20    17    18 2
    21    17    16 1
    22    15    16 2
    23    15    20 1
    24    16    19 1
    25    25    20 1
    26    24    20 1
    27    20    21 1
    28    19    27 1
    29    21    23 1
    30    21    22 1
    31     1    28 1
    32     2    29 1
    33     3    30 1
    34     6    31 1
    35    10    32 1
    36    13    33 1
    37    14    34 1
    38    19    35 1
    39    19    36 1
    40    24    37 1
    41    25    38 1
    42    25    39 1
    43    26    40 1
    44    26    41 1
    45    26    42 1
    46    27    43 1
    47    13    44 1
@<TRIPOS>SUBSTRUCTURE
     1 EHF         1 TEMP              0 ****  ****    0 ROOT
