@<TRIPOS>MOLECULE
EHM
   19    18     1     0     0
SMALL
bcc


@<TRIPOS>ATOM
      1 O4           0.0000     0.0000     0.0000 oh         1 EHM      -0.590800
      2 C4           1.4250     0.0000     0.0000 c3         1 EHM       0.202400
      3 C3           1.9440     0.0000     1.4380 c3         1 EHM       0.186100
      4 O3           1.4680    -1.1840     2.0860 oh         1 EHM      -0.590800
      5 C2           3.4770     0.0350     1.5000 c3         1 EHM       0.112100
      6 O2           3.9510     1.2310     0.9010 oh         1 EHM      -0.558800
      7 C1           3.9860    -0.0360     2.9340 c          1 EHM       0.562100
      8 O1           3.6840     0.7990     3.7850 o          1 EHM      -0.572100
      9 N            4.8110    -1.1130     3.1470 ns         1 EHM      -0.070400
     10 ON           5.3320    -1.2400     4.4420 oh         1 EHM      -0.452100
     11 HO4         -0.3140     0.0850    -0.8850 ho         1 EHM       0.393000
     12 H41          1.7840    -0.8840    -0.5120 h1         1 EHM      -0.004800
     13 H42          1.7840     0.8840    -0.5120 h1         1 EHM      -0.004800
     14 H3           1.5510     0.8670     1.9540 h1         1 EHM       0.034700
     15 HO3          0.7000    -0.9780     2.5920 ho         1 EHM       0.410000
     16 H2           3.8680    -0.8110     0.9480 h1         1 EHM       0.000700
     17 HO2          4.8000     1.0770     0.5200 ho         1 EHM       0.389000
     18 HN           5.2790    -1.5450     2.3750 hn         1 EHM       0.159500
     19 HON          5.8230    -2.0420     4.5060 ho         1 EHM       0.394000
@<TRIPOS>BOND
     1     1     2 1   
     2     1    11 1   
     3     2     3 1   
     4     2    12 1   
     5     2    13 1   
     6     3     4 1   
     7     3     5 1   
     8     3    14 1   
     9     4    15 1   
    10     5     6 1   
    11     5     7 1   
    12     5    16 1   
    13     6    17 1   
    14     7     8 2   
    15     7     9 1   
    16     9    10 1   
    17     9    18 1   
    18    10    19 1   
@<TRIPOS>SUBSTRUCTURE
     1 EHM         1 TEMP              0 ****  ****    0 ROOT
