@<TRIPOS>MOLECULE
EHN
    8     7     1     0     0
SMALL
bcc


@<TRIPOS>ATOM
      1 C1          0.0150    0.0000   -0.0000 c3        1 EHN     -0.094100
      2 C2          1.5150   -0.0000    0.0000 c3        1 EHN     -0.094100
      3 H1         -0.3810   -0.0000    1.0450 hc        1 EHN      0.031700
      4 H2         -0.3800    0.9050   -0.5230 hc        1 EHN      0.031700
      5 H3         -0.3800   -0.9050   -0.5230 hc        1 EHN      0.031700
      6 H4          1.9100    0.9050    0.5230 hc        1 EHN      0.031700
      7 H5          1.9100   -0.9050    0.5230 hc        1 EHN      0.031700
      8 H6          1.9110    0.0000   -1.0450 hc        1 EHN      0.031700
@<TRIPOS>BOND
     1    1    2 1   
     2    1    3 1   
     3    1    4 1   
     4    1    5 1   
     5    2    6 1   
     6    2    7 1   
     7    2    8 1   
@<TRIPOS>SUBSTRUCTURE
     1 EHN         1 TEMP              0 ****  ****    0 ROOT
