@<TRIPOS>MOLECULE
EHS
   52    53     1     0     0
SMALL
bcc


@<TRIPOS>ATOM
      1 O11          0.0000     0.0000     0.0000 o          1 EHS      -0.881300
      2 C7           1.3420     0.0000     0.0000 c          1 EHS       0.977600
      3 O9           1.9460    -0.0000    -1.0470 o          1 EHS      -0.881300
      4 C22          2.0960     0.0000     1.3040 c3         1 EHS      -0.111300
      5 N23          3.5360     0.0000     1.0360 ns         1 EHS      -0.136900
      6 C25          4.1810    -1.1620     0.8130 c          1 EHS       0.582700
      7 C27          5.6310    -1.1630     0.5420 ca         1 EHS      -0.133600
      8 C32          6.3030    -2.3680     0.3100 ca         1 EHS       0.168100
      9 O37          5.6240    -3.5440     0.3320 oh         1 EHS      -0.450100
     10 C31          7.6710    -2.3560     0.0570 ca         1 EHS       0.051100
     11 O36          8.3310    -3.5240    -0.1710 oh         1 EHS      -0.498100
     12 C30          8.3600    -1.1550     0.0350 ca         1 EHS      -0.142000
     13 C29          7.6950     0.0370     0.2650 ca         1 EHS      -0.117000
     14 C28          6.3390     0.0420     0.5120 ca         1 EHS      -0.085000
     15 O26          3.5660    -2.2110     0.8340 o          1 EHS      -0.636100
     16 C21          1.7270     1.2490     2.1070 c3         1 EHS       0.236400
     17 O19          1.9660     2.4320     1.2990 os         1 EHS      -0.374900
     18 C18          1.6910     3.6200     1.8600 c          1 EHS       0.709100
     19 O20          1.2640     3.6690     2.9890 o          1 EHS      -0.618000
     20 C12          1.9160     4.8910     1.0830 c3         1 EHS      -0.035300
     21 C14          3.3920     4.9980     0.6960 c3         1 EHS       0.204400
     22 O15          4.2010     4.8990     1.8700 oh         1 EHS      -0.601800
     23 N11          1.5420     6.0410     1.9090 ns         1 EHS      -0.171900
     24 C9           1.1720     7.1980     1.3260 c          1 EHS       0.590700
     25 O10          1.1470     7.2870     0.1130 o          1 EHS      -0.642100
     26 C6           0.7960     8.3570     2.1580 ca         1 EHS      -0.160600
     27 C1           0.4100     9.5600     1.5560 ca         1 EHS       0.174100
     28 O8           0.3790     9.6670     0.2030 oh         1 EHS      -0.460100
     29 C5           0.8170     8.2570     3.5520 ca         1 EHS      -0.078000
     30 C4           0.4660     9.3410     4.3260 ca         1 EHS      -0.110000
     31 C3           0.0900    10.5330     3.7310 ca         1 EHS      -0.129000
     32 C2           0.0580    10.6460     2.3510 ca         1 EHS       0.055100
     33 O7          -0.3170    11.8190     1.7730 oh         1 EHS      -0.492100
     34 H22          1.8350    -0.8850     1.8720 h1         1 EHS       0.065700
     35 H23          4.0470     0.8610     1.0530 hn         1 EHS       0.159500
     36 H211         0.6800     1.2050     2.3810 h1         1 EHS       0.012200
     37 H212         2.3340     1.2950     3.0030 h1         1 EHS       0.012200
     38 H28          5.8240     0.9780     0.6910 ha         1 EHS       0.112000
     39 H36          8.6980    -3.5140    -1.0390 ho         1 EHS       0.400000
     40 H30          9.4260    -1.1490    -0.1610 ha         1 EHS       0.100000
     41 H29          8.2420     0.9720     0.2440 ha         1 EHS       0.096000
     42 H12          1.3080     4.8770     0.1860 h1         1 EHS       0.088700
     43 H141         3.6450     4.1950     0.0140 h1         1 EHS       0.011200
     44 H142         3.5700     5.9510     0.2130 h1         1 EHS       0.011200
     45 HA           1.5330     5.9590     2.9060 hn         1 EHS       0.201500
     46 H15          5.0970     5.0920     1.6510 ho         1 EHS       0.390000
     47 H5           1.1450     7.3380     4.0230 ha         1 EHS       0.117000
     48 H8          -0.5150     9.7420    -0.0860 ho         1 EHS       0.409000
     49 H4           0.4830     9.2600     5.4070 ha         1 EHS       0.105000
     50 H3          -0.1830    11.3810     4.3470 ha         1 EHS       0.106000
     51 H7           0.2710    12.5050     2.0450 ho         1 EHS       0.402000
     52 H37          5.8770    -4.0380     1.0940 ho         1 EHS       0.397000
@<TRIPOS>BOND
     1     1     2 1   
     2     2     3 1   
     3     2     4 1   
     4     4     5 1   
     5     4    16 1   
     6     4    34 1   
     7     5     6 1   
     8     5    35 1   
     9     6     7 1   
    10     6    15 2   
    11     7     8 ar  
    12     7    14 ar  
    13     8     9 1   
    14     8    10 ar  
    15     9    52 1   
    16    10    11 1   
    17    10    12 ar  
    18    11    39 1   
    19    12    13 ar  
    20    12    40 1   
    21    13    14 ar  
    22    13    41 1   
    23    14    38 1   
    24    16    17 1   
    25    16    36 1   
    26    16    37 1   
    27    17    18 1   
    28    18    19 2   
    29    18    20 1   
    30    20    21 1   
    31    20    23 1   
    32    20    42 1   
    33    21    22 1   
    34    21    43 1   
    35    21    44 1   
    36    22    46 1   
    37    23    24 1   
    38    23    45 1   
    39    24    25 2   
    40    24    26 1   
    41    26    27 ar  
    42    26    29 ar  
    43    27    28 1   
    44    27    32 ar  
    45    28    48 1   
    46    29    30 ar  
    47    29    47 1   
    48    30    31 ar  
    49    30    49 1   
    50    31    32 ar  
    51    31    50 1   
    52    32    33 1   
    53    33    51 1   
@<TRIPOS>SUBSTRUCTURE
     1 EHS         1 TEMP              0 ****  ****    0 ROOT
