@<TRIPOS>MOLECULE
molecule
   26    26     1     0     0
SMALL
bcc


@<TRIPOS>ATOM
      1 C01          0.0000     0.0000     0.0000 c3         1 EHV      -0.055800
      2 C02          1.5070     0.0000     0.0000 ca         1 EHV      -0.053300
      3 C03          2.1980     0.0000     1.1940 ca         1 EHV      -0.128000
      4 C04          3.5820     0.0000     1.1960 ca         1 EHV      -0.130000
      5 C05          4.2840    -0.0010     0.0040 ca         1 EHV      -0.120000
      6 C06          3.6080    -0.0020    -1.1990 ca         1 EHV       0.007100
      7 C08          2.2090    -0.0060    -1.2100 ca         1 EHV      -0.115600
      8 C09          1.4800    -0.0070    -2.4870 c          1 EHV       0.570700
      9 C11          0.9980     1.2910    -3.0810 c3         1 EHV      -0.145400
     10 C12          0.3950     1.0290    -4.4620 c3         1 EHV       0.050100
     11 C14         -0.1960     2.3050    -5.0040 c          1 EHV       0.866600
     12 O10          1.2650    -1.0530    -3.0620 o          1 EHV      -0.514100
     13 O13          1.4160     0.5630    -5.3470 oh         1 EHV      -0.609800
     14 O15          0.2740     2.8170    -5.9920 o          1 EHV      -0.839800
     15 O16         -1.2450     2.8730    -4.3880 o          1 EHV      -0.839800
     16 Br07         4.5690    -0.0030    -2.8270 br         1 EHV      -0.072100
     17 H1          -0.3610    -0.6050    -0.8230 hc         1 EHV       0.052700
     18 H2          -0.3610     1.0150    -0.1120 hc         1 EHV       0.052700
     19 H3          -0.3610    -0.4100     0.9350 hc         1 EHV       0.052700
     20 H4           1.6560     0.0010     2.1320 ha         1 EHV       0.126000
     21 H5           4.1190     0.0000     2.1370 ha         1 EHV       0.123000
     22 H6           5.3670     0.0010     0.0150 ha         1 EHV       0.134000
     23 H8           1.8310     1.9770    -3.1760 hc         1 EHV       0.084200
     24 H9           0.2440     1.7260    -2.4350 hc         1 EHV       0.084200
     25 H10         -0.3810     0.2780    -4.3800 h1         1 EHV       0.028700
     26 H12          1.0210     0.0970    -6.0650 ho         1 EHV       0.393000
@<TRIPOS>BOND
     1    12     8 2
     2    16     6 1
     3    13    10 1
     4     6     5 ar
     5     6     7 ar
     6     8     7 1
     7     8     9 1
     8     5     4 ar
     9     7     2 ar
    10    10     9 1
    11    10    11 1
    12     4     3 ar
    13    14    11 1
    14     2     3 ar
    15     2     1 1
    16    11    15 1
    17     1    17 1
    18     1    18 1
    19     1    19 1
    20     3    20 1
    21     4    21 1
    22     5    22 1
    23     9    23 1
    24     9    24 1
    25    10    25 1
    26    13    26 1
@<TRIPOS>SUBSTRUCTURE
     1 EHV         1 TEMP              0 ****  ****    0 ROOT
