@<TRIPOS>MOLECULE
molecule
   33    34     1     0     0
SMALL
bcc


@<TRIPOS>ATOM
      1 CAB          0.0000     0.0000     0.0000 ca         1 EHY      -0.123000
      2 CAC          1.3830     0.0000     0.0000 ca         1 EHY      -0.123500
      3 CAD         -0.6910    -0.0010     1.1970 ca         1 EHY      -0.123500
      4 CAE          4.1750     6.0870     8.3410 ca         1 EHY      -0.250300
      5 CAF          5.4660     6.1310     8.8310 ca         1 EHY       0.417200
      6 CAG          2.0730     0.0000     1.1970 ca         1 EHY      -0.119000
      7 CAH         -0.0010    -0.0060     2.3940 ca         1 EHY      -0.119000
      8 CAI          3.7050     4.9130     7.7760 ca         1 EHY      -0.049000
      9 CAJ          5.8460     3.9380     8.2350 ca         1 EHY       0.407200
     10 CAK          2.3910     1.4410     4.1420 c3         1 EHY       0.116000
     11 CAP          3.4600     2.6080     5.9940 cs         1 EHY       0.600400
     12 CAQ          1.3830    -0.0010     2.3940 ca         1 EHY      -0.088300
     13 CAR          4.5610     3.8150     7.7230 ca         1 EHY      -0.093700
     14 NAM          6.2540     5.0760     8.7600 nb         1 EHY      -0.686000
     15 NAN          3.1230     1.4410     5.4100 ns         1 EHY      -0.518900
     16 NAO          4.1330     2.6070     7.1610 ns         1 EHY      -0.418100
     17 SAA          3.0320     4.0910     5.2530 s          1 EHY      -0.687400
     18 H1          -0.5420     0.0020    -0.9380 ha         1 EHY       0.132000
     19 H2           1.9250     0.0000    -0.9380 ha         1 EHY       0.132500
     20 H3          -1.7740    -0.0030     1.1960 ha         1 EHY       0.132500
     21 H5           5.8380     7.0480     9.2730 h4         1 EHY       0.024100
     22 H6           3.1570     0.0020     1.1970 ha         1 EHY       0.131000
     23 H7          -0.5430    -0.0060     3.3320 ha         1 EHY       0.131000
     24 H8           2.6970     4.8500     7.3840 ha         1 EHY       0.182000
     25 H9           6.5220     3.0930     8.1970 h4         1 EHY       0.017100
     26 H10          1.4440     1.9510     4.2710 h1         1 EHY       0.079700
     27 H11          2.9760     1.9520     3.3870 h1         1 EHY       0.079700
     28 H14          3.3730     0.5750     5.8440 hn         1 EHY       0.308500
     29 H15          4.3780     1.7400     7.5960 hn         1 EHY       0.318500
     30 CAL          2.1360    -0.0010     3.6990 c3         1 EHY      -0.055100
     31 H4           3.5360     6.9600     8.4020 ha         1 EHY       0.145000
     32 H12          3.0830    -0.5110     3.5700 hc         1 EHY       0.050700
     33 H13          1.5500    -0.5120     4.4540 hc         1 EHY       0.050700
@<TRIPOS>BOND
     1    17    11 2
     2    15    11 1
     3    15    10 1
     4    11    16 1
     5    30    12 1
     6    30    10 1
     7     6    12 ar
     8     6     2 ar
     9    12     7 ar
    10    16    13 1
    11     2     1 ar
    12     7     3 ar
    13     8    13 ar
    14     8     4 ar
    15    13     9 ar
    16     1     3 ar
    17     4     5 ar
    18     9    14 ar
    19     5    14 ar
    20     1    18 1
    21     2    19 1
    22     3    20 1
    23     4    31 1
    24     5    21 1
    25     6    22 1
    26     7    23 1
    27     8    24 1
    28     9    25 1
    29    10    26 1
    30    10    27 1
    31    30    32 1
    32    30    33 1
    33    15    28 1
    34    16    29 1
@<TRIPOS>SUBSTRUCTURE
     1 EHY         1 TEMP              0 ****  ****    0 ROOT
