@<TRIPOS>MOLECULE
molecule
   85    84     1     0     0
SMALL
bcc


@<TRIPOS>ATOM
      1 O1           0.0000     0.0000     0.0000 oh         1 EHZ      -0.603800
      2 C1           1.7430     3.9200     6.3800 c3         1 EHZ      -0.082400
      3 C2           2.1490     2.6140     5.6960 c3         1 EHZ      -0.081400
      4 C3           1.6390     2.6140     4.2540 c3         1 EHZ      -0.082400
      5 C4           2.0440     1.3060     3.5690 c3         1 EHZ      -0.081400
      6 O2           0.9100    -0.2390    -2.5910 o          1 EHZ      -0.545100
      7 C6           1.9380     0.0000     1.4430 c3         1 EHZ      -0.096400
      8 C7           1.4290     0.0000     0.0000 c3         1 EHZ       0.159100
      9 C8           1.9390    -1.2480    -0.7220 c3         1 EHZ      -0.173400
     10 C11          1.5210    -2.8460    -5.9000 c3         1 EHZ       0.127000
     11 C12          1.0480    -3.0700    -8.2800 c          1 EHZ       0.664100
     12 C13          0.4430    -2.5600    -9.5630 c3         1 EHZ      -0.174400
     13 C14          0.7130    -3.5600   -10.6880 c3         1 EHZ       0.130000
     14 C15          0.2390    -3.7850   -13.0670 c          1 EHZ       0.647100
     15 C16         -0.4590    -3.3310   -14.3230 c3         1 EHZ       0.088100
     16 C17          0.2850    -2.1330   -14.9170 c3         1 EHZ      -0.074000
     17 C18         -0.3390    -1.7610   -16.2630 c3         1 EHZ      -0.067100
     18 C19          0.1790    -0.9430   -13.9600 c3         1 EHZ      -0.067100
     19 C20          1.7570    -2.4950   -15.1190 c3         1 EHZ       0.229400
     20 C21          2.2530     3.9200     7.8230 c3         1 EHZ      -0.082400
     21 C22          1.8480     5.2280     8.5070 c3         1 EHZ      -0.082400
     22 C9           1.5410    -1.1880    -2.1730 c          1 EHZ       0.571700
     23 N1           0.9340    -2.3490    -7.1470 ns         1 EHZ      -0.598900
     24 N2           0.1250    -3.0640   -11.9350 ns         1 EHZ      -0.602900
     25 O3           1.6370    -4.1300    -8.2680 o          1 EHZ      -0.592100
     26 O4           0.9050    -4.7980   -13.0760 o          1 EHZ      -0.575100
     27 O5          -0.4750    -4.3990   -15.2720 oh         1 EHZ      -0.551800
     28 O6           2.4520    -1.3760   -15.6730 os         1 EHZ      -0.585200
     29 O7           4.8690    -1.5680   -14.6560 o          1 EHZ      -0.910167
     30 O9           4.3130    -2.5430   -16.9170 o          1 EHZ      -0.910167
     31 P1           4.0240    -1.4040   -16.0160 p5         1 EHZ       1.179900
     32 S1           1.9770    -2.4590    -3.2350 ss         1 EHZ      -0.247700
     33 H1          -0.3140     0.8050    -0.3760 ho         1 EHZ       0.411000
     34 H2           2.1750     4.7570     5.8450 hc         1 EHZ       0.041200
     35 H3           0.6640     4.0090     6.3790 hc         1 EHZ       0.041200
     36 H4           3.2280     2.5250     5.6980 hc         1 EHZ       0.040700
     37 H5           1.7170     1.7770     6.2320 hc         1 EHZ       0.040700
     38 H6           2.0710     3.4500     3.7180 hc         1 EHZ       0.041700
     39 H7           0.5590     2.7030     4.2520 hc         1 EHZ       0.041700
     40 H8           3.1230     1.2170     3.5710 hc         1 EHZ       0.040700
     41 H9           1.6110     0.4690     4.1040 hc         1 EHZ       0.040700
     42 H10          1.9660     2.1440     1.5910 hc         1 EHZ       0.045200
     43 H11          0.4540     1.3970     2.1250 hc         1 EHZ       0.045200
     44 H12          3.0180    -0.0890     1.4440 hc         1 EHZ       0.049700
     45 H13          1.5060    -0.8360     1.9780 hc         1 EHZ       0.049700
     46 H14          1.7900     0.8850    -0.5100 h1         1 EHZ       0.047700
     47 H15          1.5070    -2.1310    -0.2660 hc         1 EHZ       0.080200
     48 H16          3.0180    -1.2940    -0.6450 hc         1 EHZ       0.080200
     49 H17          0.1810    -1.7250    -4.6470 h1         1 EHZ       0.079200
     50 H18          1.6930    -0.8890    -5.0270 h1         1 EHZ       0.079200
     51 H19          2.5900    -2.9660    -6.0270 h1         1 EHZ       0.063200
     52 H20          1.0780    -3.8020    -5.6480 h1         1 EHZ       0.063200
     53 H21          0.8860    -1.6040    -9.8160 hc         1 EHZ       0.062200
     54 H22         -0.6260    -2.4400    -9.4350 hc         1 EHZ       0.062200
     55 H23          0.2700    -4.5160   -10.4360 h1         1 EHZ       0.069200
     56 H24          1.7820    -3.6800   -10.8160 h1         1 EHZ       0.069200
     57 H25         -1.4760    -3.0430   -14.0870 h1         1 EHZ       0.005700
     58 H26         -0.0720    -2.5060   -17.0030 hc         1 EHZ       0.028033
     59 H27          0.0310    -0.7920   -16.5770 hc         1 EHZ       0.028033
     60 H28         -1.4170    -1.7220   -16.1640 hc         1 EHZ       0.028033
     61 H29          0.2920    -0.0210   -14.5180 hc         1 EHZ       0.028033
     62 H30          0.9590    -1.0110   -13.2120 hc         1 EHZ       0.028033
     63 H31         -0.7890    -0.9550   -13.4750 hc         1 EHZ       0.028033
     64 H32          2.1980    -2.7590   -14.1650 h1         1 EHZ       0.031200
     65 H33          1.8310    -3.3380   -15.7960 h1         1 EHZ       0.031200
     66 H34          1.8210     3.0840     8.3580 hc         1 EHZ       0.040200
     67 H35          3.3330     3.8310     7.8240 hc         1 EHZ       0.040200
     68 H36          2.2800     6.0650     7.9720 hc         1 EHZ       0.041200
     69 H37          0.7690     5.3170     8.5060 hc         1 EHZ       0.041200
     70 H39          0.4320    -1.4830    -7.1530 hn         1 EHZ       0.311500
     71 H40         -0.4130    -2.2200   -11.9320 hn         1 EHZ       0.306500
     72 H41         -1.3300    -4.7960   -15.2840 ho         1 EHZ       0.372000
     73 OP3          4.4390    -0.0280   -16.7420 o          1 EHZ      -0.910167
     74 C23          2.3590     5.2280     9.9500 c3         1 EHZ      -0.081400
     75 C24          1.9540     6.5340    10.6340 c3         1 EHZ      -0.084400
     76 C25          2.4640     6.5340    12.0760 c3         1 EHZ      -0.092100
     77 H45          3.4390     5.1390     9.9510 hc         1 EHZ       0.040200
     78 H46          1.9280     4.3910    10.4860 hc         1 EHZ       0.040200
     79 H47          0.8740     6.6230    10.6320 hc         1 EHZ       0.039700
     80 H48          2.3850     7.3710    10.0980 hc         1 EHZ       0.039700
     81 H49          2.1710     7.4570    12.5630 hc         1 EHZ       0.031367
     82 H50          2.0370     5.6940    12.6100 hc         1 EHZ       0.031367
     83 H51          3.5440     6.4520    12.0780 hc         1 EHZ       0.031367
     84 C10          1.2500    -1.8450    -4.7750 c3         1 EHZ      -0.010300
     85 C5           1.5340     1.3070     2.1260 c3         1 EHZ      -0.081400
@<TRIPOS>BOND
     1    29    31 1
     2    30    31 1
     3    31    28 1
     4    28    19 1
     5    19    16 1
     6    27    15 1
     7    18    16 1
     8    16    15 1
     9    16    17 1
    10    15    14 1
    11    14    26 2
    12    14    24 1
    13    24    13 1
    14    12    13 1
    15    12    11 1
    16    23    11 1
    17    23    10 1
    18    11    25 2
    19    10    84 1
    20     6    22 2
    21    84    32 1
    22     8     7 1
    23     8     9 1
    24     8     1 1
    25    22    32 1
    26    22     9 1
    27     7    85 1
    28    21    20 1
    29     2    20 1
    30     2     3 1
    31     4     3 1
    32     4     5 1
    33    85     5 1
    34     1    33 1
    35     2    34 1
    36     2    35 1
    37     3    36 1
    38     3    37 1
    39     4    38 1
    40     4    39 1
    41     5    40 1
    42     5    41 1
    43    85    42 1
    44    85    43 1
    45     7    44 1
    46     7    45 1
    47     8    46 1
    48     9    47 1
    49     9    48 1
    50    84    49 1
    51    84    50 1
    52    10    51 1
    53    10    52 1
    54    12    53 1
    55    12    54 1
    56    13    55 1
    57    13    56 1
    58    15    57 1
    59    17    58 1
    60    17    59 1
    61    17    60 1
    62    18    61 1
    63    18    62 1
    64    18    63 1
    65    19    64 1
    66    19    65 1
    67    20    66 1
    68    20    67 1
    69    21    68 1
    70    21    69 1
    71    23    70 1
    72    24    71 1
    73    27    72 1
    74    31    73 1
    75    21    74 1
    76    74    75 1
    77    75    76 1
    78    74    77 1
    79    74    78 1
    80    75    79 1
    81    75    80 1
    82    76    81 1
    83    76    82 1
    84    76    83 1
@<TRIPOS>SUBSTRUCTURE
     1 EHZ         1 TEMP              0 ****  ****    0 ROOT
