@<TRIPOS>MOLECULE
molecule
   33    35     1     0     0
SMALL
bcc


@<TRIPOS>ATOM
      1 CAA          0.0000     0.0000     0.0000 c3         1 EI1      -0.090100
      2 CAK          1.5300     0.0000     0.0000 c3         1 EI1      -0.029200
      3 CAP          2.0330     0.0000     1.4210 cc         1 EI1      -0.052300
      4 CAR          2.4070    -1.1120     2.1520 ca         1 EI1      -0.178000
      5 CAJ          2.4590    -2.4990     1.8940 ca         1 EI1      -0.094000
      6 CAN          2.8920    -3.3460     2.8680 ca         1 EI1       0.070100
      7 OAC          2.9390    -4.6800     2.6130 oh         1 EI1      -0.523100
      8 CAH          3.2880    -2.8750     4.1260 ca         1 EI1      -0.115000
      9 CAI          3.2600    -1.5550     4.4360 ca         1 EI1      -0.097000
     10 CAQ          2.8240    -0.6200     3.4740 ca         1 EI1      -0.038000
     11 NAL          2.6820     0.6940     3.4560 nc         1 EI1      -0.265400
     12 NAS          2.2030     1.0820     2.1990 na         1 EI1       0.209700
     13 CAO          1.9370     2.4030     1.8120 ca         1 EI1       0.007800
     14 CAF          1.2560     3.2550     2.6710 ca         1 EI1      -0.109500
     15 CAD          0.9950     4.5550     2.2880 ca         1 EI1      -0.144000
     16 CAM          1.4120     5.0110     1.0460 ca         1 EI1       0.110100
     17 OAB          1.1550     6.2910     0.6700 oh         1 EI1      -0.518100
     18 CAE          2.0930     4.1590     0.1860 ca         1 EI1      -0.144000
     19 CAG          2.3590     2.8610     0.5710 ca         1 EI1      -0.109500
     20 HAA1        -0.3610    -0.9900    -0.2530 hc         1 EI1       0.042033
     21 HAA2        -0.3610     0.7140    -0.7310 hc         1 EI1       0.042033
     22 HAA3        -0.3610     0.2760     0.9830 hc         1 EI1       0.042033
     23 HAK1         1.8910     0.8840    -0.5110 hc         1 EI1       0.060700
     24 HAK2         1.8910    -0.8850    -0.5110 hc         1 EI1       0.060700
     25 HAJ          2.2830    -2.8710     0.8920 ha         1 EI1       0.137000
     26 HOAC         2.0830    -5.0550     2.7380 ho         1 EI1       0.414000
     27 HAH          3.6260    -3.5850     4.8720 ha         1 EI1       0.141000
     28 HAI          3.5730    -1.2200     5.4180 ha         1 EI1       0.143000
     29 HAF          0.9300     2.9000     3.6410 ha         1 EI1       0.153500
     30 HAD          0.4640     5.2200     2.9580 ha         1 EI1       0.149500
     31 HOAB         0.3270     6.3270     0.2210 ho         1 EI1       0.422000
     32 HAE          2.4200     4.5160    -0.7830 ha         1 EI1       0.149500
     33 HAG          2.8900     2.1960    -0.1000 ha         1 EI1       0.153500
@<TRIPOS>BOND
     1     1     2 1
     2     1    20 1
     3     1    21 1
     4     1    22 1
     5     2     3 1
     6     2    23 1
     7     2    24 1
     8     3    12 1
     9     3     4 2
    10     4    10 ar
    11     4     5 ar
    12     5     6 ar
    13     5    25 1
    14     6     8 ar
    15     6     7 1
    16     7    26 1
    17     8     9 ar
    18     8    27 1
    19     9    10 ar
    20     9    28 1
    21    10    11 2
    22    11    12 1
    23    12    13 1
    24    13    14 ar
    25    13    19 ar
    26    14    15 ar
    27    14    29 1
    28    15    16 ar
    29    15    30 1
    30    16    17 1
    31    16    18 ar
    32    17    31 1
    33    18    19 ar
    34    18    32 1
    35    19    33 1
@<TRIPOS>SUBSTRUCTURE
     1 EI1         1 TEMP              0 ****  ****    0 ROOT
