@<TRIPOS>MOLECULE
EI1
   33    35     1     0     0
SMALL
bcc


@<TRIPOS>ATOM
      1 CAA        -0.1280    0.0060    0.0350 c3        1 EI1     -0.093100
      2 CAK         1.3780   -0.1150    0.0080 c3        1 EI1     -0.012200
      3 CAP         1.9630   -0.1010    1.3640 cc        1 EI1     -0.105300
      4 CAR         2.3740   -1.2030    2.1520 ca        1 EI1     -0.099000
      5 CAJ         2.4180   -2.6000    1.9610 ca        1 EI1     -0.183000
      6 CAN         2.9000   -3.3720    2.9940 ca        1 EI1      0.112100
      7 OAC         2.9920   -4.7460    2.9280 oh        1 EI1     -0.501100
      8 CAH         3.3520   -2.8100    4.2370 ca        1 EI1     -0.131000
      9 CAI         3.3210   -1.4620    4.4490 ca        1 EI1     -0.065000
     10 CAQ         2.8320   -0.6140    3.4110 ca        1 EI1     -0.099000
     11 NAL         2.6990    0.7520    3.3650 nc        1 EI1     -0.254400
     12 NAS         2.1940    1.0360    2.1580 na        1 EI1      0.224700
     13 CAO         1.9310    2.3830    1.7510 ca        1 EI1     -0.035200
     14 CAF         1.0610    3.1890    2.5090 ca        1 EI1     -0.075500
     15 CAD         0.8060    4.4980    2.1150 ca        1 EI1     -0.183000
     16 CAM         1.4230    5.0110    0.9660 ca        1 EI1      0.135100
     17 OAB         1.2110    6.2920    0.5160 oh        1 EI1     -0.491100
     18 CAE         2.3060    4.2200    0.2110 ca        1 EI1     -0.183000
     19 CAG         2.5640    2.9150    0.6080 ca        1 EI1     -0.075500
     20 HAA1       -0.5300   -0.0390   -1.0060 hc        1 EI1      0.041033
     21 HAA2       -0.4380    0.9760    0.4930 hc        1 EI1      0.041033
     22 HAA3       -0.5810   -0.8240    0.6280 hc        1 EI1      0.041033
     23 HAK1        1.6690   -1.0860   -0.4790 hc        1 EI1      0.056200
     24 HAK2        1.8090    0.7160   -0.6140 hc        1 EI1      0.056200
     25 HAJ         2.0770   -3.0380    1.0140 ha        1 EI1      0.134000
     26 HOAC        2.6690   -5.0240    2.0590 ho        1 EI1      0.416000
     27 HAH         3.7210   -3.5060    5.0050 ha        1 EI1      0.150000
     28 HAI         3.6650   -1.0180    5.3940 ha        1 EI1      0.148000
     29 HAF         0.5840    2.7930    3.4200 ha        1 EI1      0.154500
     30 HAD         0.1260    5.1270    2.7080 ha        1 EI1      0.150000
     31 HOAB        0.6080    6.7310    1.1330 ho        1 EI1      0.424000
     32 HAE         2.7880    4.6460   -0.6800 ha        1 EI1      0.150000
     33 HAG         3.2730    2.3040    0.0250 ha        1 EI1      0.154500
@<TRIPOS>BOND
     1    1    2 1   
     2    1   20 1   
     3    1   21 1   
     4    1   22 1   
     5    2    3 1   
     6    2   23 1   
     7    2   24 1   
     8    3    4 2   
     9    3   12 1   
    10    4    5 ar  
    11    4   10 ar  
    12    5    6 ar  
    13    5   25 1   
    14    6    7 1   
    15    6    8 ar  
    16    7   26 1   
    17    8    9 ar  
    18    8   27 1   
    19    9   10 ar  
    20    9   28 1   
    21   10   11 2   
    22   11   12 1   
    23   12   13 1   
    24   13   14 ar  
    25   13   19 ar  
    26   14   15 ar  
    27   14   29 1   
    28   15   16 ar  
    29   15   30 1   
    30   16   17 1   
    31   16   18 ar  
    32   17   31 1   
    33   18   19 ar  
    34   18   32 1   
    35   19   33 1   
@<TRIPOS>SUBSTRUCTURE
     1 EI1         1 TEMP              0 ****  ****    0 ROOT
