@<TRIPOS>MOLECULE
molecule
   26    27     1     0     0
SMALL
bcc


@<TRIPOS>ATOM
      1 C1           0.0000     0.0000     0.0000 c3         1 EI3      -0.045800
      2 C2           1.5070     0.0000     0.0000 ca         1 EI3      -0.202600
      3 C3           2.2060     0.0000     1.1980 ca         1 EI3      -0.103000
      4 C4           3.5900    -0.0000     1.1550 ca         1 EI3      -0.205300
      5 C5           4.2290    -0.0000    -0.0830 cp         1 EI3       0.364300
      6 N6           3.5230    -0.0010    -1.2060 nb         1 EI3      -0.687000
      7 C7           2.2050    -0.0060    -1.1930 ca         1 EI3       0.416700
      8 C14          5.7110    -0.0000    -0.1470 cp         1 EI3       0.364300
      9 N15          6.4170     0.0010     0.9770 nb         1 EI3      -0.687000
     10 C16          7.7340    -0.0000     0.9640 ca         1 EI3       0.416700
     11 C17          8.4330    -0.0010    -0.2290 ca         1 EI3      -0.202600
     12 C18          7.7340    -0.0010    -1.4270 ca         1 EI3      -0.103000
     13 C19          6.3490    -0.0060    -1.3840 ca         1 EI3      -0.205300
     14 C20          9.9400    -0.0000    -0.2290 c3         1 EI3      -0.045800
     15 H1          -0.3610     0.7110    -0.7330 hc         1 EI3       0.045867
     16 H1A         -0.3610    -0.9900    -0.2500 hc         1 EI3       0.045867
     17 H1B         -0.3610     0.2790     0.9830 hc         1 EI3       0.045867
     18 H3           1.6810     0.0000     2.1460 ha         1 EI3       0.140000
     19 H4           4.1690     0.0000     2.0710 ha         1 EI3       0.162000
     20 H7           1.6620    -0.0070    -2.1310 h4         1 EI3       0.023100
     21 H16          8.2780    -0.0000     1.9010 h4         1 EI3       0.023100
     22 H18          8.2580    -0.0040    -2.3750 ha         1 EI3       0.140000
     23 H19          5.7710    -0.0060    -2.3000 ha         1 EI3       0.162000
     24 H20         10.3020    -0.8740     0.3000 hc         1 EI3       0.045867
     25 H20A        10.3010    -0.0220    -1.2500 hc         1 EI3       0.045867
     26 H20B        10.3000     0.8950     0.2630 hc         1 EI3       0.045867
@<TRIPOS>BOND
     1     1     2 1
     2     2     3 ar
     3     2     7 ar
     4     3     4 ar
     5     4     5 ar
     6     5     6 ar
     7     5     8 1
     8     6     7 ar
     9     8     9 ar
    10     8    13 ar
    11     9    10 ar
    12    10    11 ar
    13    11    12 ar
    14    11    14 1
    15    12    13 ar
    16     1    15 1
    17     1    16 1
    18     1    17 1
    19     3    18 1
    20     4    19 1
    21     7    20 1
    22    10    21 1
    23    12    22 1
    24    13    23 1
    25    14    24 1
    26    14    25 1
    27    14    26 1
@<TRIPOS>SUBSTRUCTURE
     1 EI3         1 TEMP              0 ****  ****    0 ROOT
