@<TRIPOS>MOLECULE
EIC
   51    50     1     0     0
SMALL
bcc


@<TRIPOS>ATOM
      1 C1         -0.4350    0.6070    0.1440 c         1 EIC      0.907600
      2 C2          0.9570   -0.0430    0.2470 c3        1 EIC     -0.194400
      3 C3          1.7530    0.5420    1.3870 c3        1 EIC     -0.065400
      4 C4          3.0450   -0.2120    1.6200 c3        1 EIC     -0.078400
      5 C5          3.8450    0.3940    2.7530 c3        1 EIC     -0.078400
      6 C6          5.1320   -0.3670    2.9930 c3        1 EIC     -0.079400
      7 C7          5.9320    0.2440    4.1230 c3        1 EIC     -0.077400
      8 C8          7.2180   -0.5220    4.3610 c3        1 EIC     -0.053200
      9 C9          8.0240    0.0540    5.4620 c2        1 EIC     -0.159200
     10 C10         9.1560   -0.4900    5.9220 c2        1 EIC     -0.187200
     11 C11         9.7330   -1.7460    5.3870 c3        1 EIC     -0.019000
     12 C12        11.0690   -2.0740    5.9410 c2        1 EIC     -0.162200
     13 C13        11.7160   -3.2160    5.6830 c2        1 EIC     -0.183200
     14 C14        11.1740   -4.2930    4.8210 c3        1 EIC     -0.049200
     15 C15        12.1590   -5.4270    4.6300 c3        1 EIC     -0.076400
     16 C16        11.5790   -6.5110    3.7470 c3        1 EIC     -0.080400
     17 C17        12.5600   -7.6480    3.5540 c3        1 EIC     -0.079400
     18 C18        11.9870   -8.7300    2.6750 c3        1 EIC     -0.093100
     19 O1         -1.1150    0.7490    1.2010 o         1 EIC     -0.852800
     20 O2         -0.8390    0.9520   -1.0040 o         1 EIC     -0.852800
     21 H21         1.5020    0.0940   -0.7200 hc        1 EIC      0.018700
     22 H22         0.8100   -1.1410    0.4070 hc        1 EIC      0.018700
     23 H31         1.9820    1.6180    1.1700 hc        1 EIC      0.044200
     24 H32         1.1200    0.5200    2.3150 hc        1 EIC      0.044200
     25 H41         2.8160   -1.2850    1.8560 hc        1 EIC      0.025700
     26 H42         3.6590   -0.2060    0.6810 hc        1 EIC      0.025700
     27 H51         4.0800    1.4650    2.5140 hc        1 EIC      0.036700
     28 H52         3.2270    0.3940    3.6890 hc        1 EIC      0.036700
     29 H61         5.7470   -0.3690    2.0550 hc        1 EIC      0.034200
     30 H62         4.8950   -1.4360    3.2350 hc        1 EIC      0.034200
     31 H71         6.1700    1.3130    3.8800 hc        1 EIC      0.040200
     32 H72         5.3170    0.2470    5.0610 hc        1 EIC      0.040200
     33 H81         7.8300   -0.5280    3.4170 hc        1 EIC      0.046200
     34 H82         6.9770   -1.5950    4.5950 hc        1 EIC      0.046200
     35 H91         7.6380    0.9880    5.9040 ha        1 EIC      0.123000
     36 H1O1        9.7100   -0.0100    6.7450 ha        1 EIC      0.117000
     37 H111        9.8090   -1.6750    4.2630 hc        1 EIC      0.057200
     38 H112        9.0220   -2.5970    5.5970 hc        1 EIC      0.057200
     39 H121       11.5270   -1.3130    6.5930 ha        1 EIC      0.120000
     40 H131       12.7100   -3.4020    6.1200 ha        1 EIC      0.118000
     41 H141       10.2250   -4.6920    5.2770 hc        1 EIC      0.049700
     42 H142       10.8930   -3.8660    3.8190 hc        1 EIC      0.049700
     43 H151       13.1030   -5.0320    4.1710 hc        1 EIC      0.038200
     44 H152       12.4320   -5.8610    5.6280 hc        1 EIC      0.038200
     45 H161       11.3060   -6.0770    2.7490 hc        1 EIC      0.042200
     46 H162       10.6340   -6.9050    4.2060 hc        1 EIC      0.042200
     47 H171       13.5050   -7.2520    3.0950 hc        1 EIC      0.036200
     48 H172       12.8350   -8.0790    4.5530 hc        1 EIC      0.036200
     49 H181       11.7300   -8.3240    1.6670 hc        1 EIC      0.032033
     50 H182       11.0580   -9.1540    3.1280 hc        1 EIC      0.032033
     51 H183       12.7260   -9.5570    2.5450 hc        1 EIC      0.032033
@<TRIPOS>BOND
     1    1    2 1   
     2    1   19 1   
     3    1   20 1   
     4    2    3 1   
     5    2   21 1   
     6    2   22 1   
     7    3    4 1   
     8    3   23 1   
     9    3   24 1   
    10    4    5 1   
    11    4   25 1   
    12    4   26 1   
    13    5    6 1   
    14    5   27 1   
    15    5   28 1   
    16    6    7 1   
    17    6   29 1   
    18    6   30 1   
    19    7    8 1   
    20    7   31 1   
    21    7   32 1   
    22    8    9 1   
    23    8   33 1   
    24    8   34 1   
    25    9   10 2   
    26    9   35 1   
    27   10   11 1   
    28   10   36 1   
    29   11   12 1   
    30   11   37 1   
    31   11   38 1   
    32   12   13 2   
    33   12   39 1   
    34   13   14 1   
    35   13   40 1   
    36   14   15 1   
    37   14   41 1   
    38   14   42 1   
    39   15   16 1   
    40   15   43 1   
    41   15   44 1   
    42   16   17 1   
    43   16   45 1   
    44   16   46 1   
    45   17   18 1   
    46   17   47 1   
    47   17   48 1   
    48   18   49 1   
    49   18   50 1   
    50   18   51 1   
@<TRIPOS>SUBSTRUCTURE
     1 EIC         1 TEMP              0 ****  ****    0 ROOT
