@<TRIPOS>MOLECULE
molecule
   51    50     1     0     0
SMALL
bcc


@<TRIPOS>ATOM
      1 C1           0.0000     0.0000     0.0000 c          1 EIC       0.890600
      2 C2           1.5060     0.0000     0.0000 c3         1 EIC      -0.183400
      3 C3           2.0170     0.0000     1.4420 c3         1 EIC      -0.063400
      4 C4           3.5470    -0.0010     1.4420 c3         1 EIC      -0.088400
      5 C5           4.0570     0.0010     2.8840 c3         1 EIC      -0.079400
      6 C6           5.5870     0.0010     2.8850 c3         1 EIC      -0.092400
      7 C7           6.0970     0.0010     4.3270 c3         1 EIC      -0.090400
      8 C8           7.6260     0.0020     4.3270 c3         1 EIC       0.004800
      9 C9           8.1290     0.0020     5.7470 c2         1 EIC      -0.224200
     10 C10          8.9910    -0.9040     6.1370 c2         1 EIC      -0.224200
     11 C11          9.6000    -1.8470     5.1310 c3         1 EIC       0.230000
     12 C12         11.1020    -1.8050     5.2490 c2         1 EIC      -0.120200
     13 C13         11.7780    -2.9160     5.4080 c2         1 EIC      -0.271200
     14 C14         11.0750    -4.2450     5.3150 c3         1 EIC       0.052800
     15 C15         11.8010    -5.1380     4.3080 c3         1 EIC      -0.117400
     16 C16         11.0870    -6.4870     4.2150 c3         1 EIC      -0.083400
     17 C17         11.8130    -7.3800     3.2080 c3         1 EIC      -0.082400
     18 C18         11.1000    -8.7300     3.1130 c3         1 EIC      -0.092100
     19 O1          -0.6040    -0.0010     1.0460 o          1 EIC      -0.857300
     20 O2          -0.6720    -0.0010    -1.1620 o          1 EIC      -0.857300
     21 H21          1.8670     0.8850    -0.5110 hc         1 EIC       0.026200
     22 H22          1.8670    -0.8850    -0.5110 hc         1 EIC       0.026200
     23 H31          1.6560    -0.8840     1.9530 hc         1 EIC       0.045700
     24 H32          1.6570     0.8850     1.9520 hc         1 EIC       0.045700
     25 H41          3.9080    -0.8860     0.9320 hc         1 EIC       0.028700
     26 H42          3.9080     0.8830     0.9310 hc         1 EIC       0.028700
     27 H51          3.6960     0.8850     3.3940 hc         1 EIC       0.041200
     28 H52          3.6960    -0.8840     3.3960 hc         1 EIC       0.041200
     29 H61          5.9480     0.8850     2.3740 hc         1 EIC       0.033700
     30 H62          5.9480    -0.8840     2.3750 hc         1 EIC       0.033700
     31 H71          5.7360    -0.8840     4.8370 hc         1 EIC       0.053700
     32 H72          5.7360     0.8860     4.8370 hc         1 EIC       0.053700
     33 H81          7.9870     0.8860     3.8160 hc         1 EIC       0.041200
     34 H82          7.9870    -0.8830     3.8160 hc         1 EIC       0.041200
     35 H91          8.6930     0.4740     4.9520 ha         1 EIC       0.121000
     36 H1O1         8.4750    -1.8050     5.8280 ha         1 EIC      -0.002000
     37 H111         9.2510    -2.8540     5.3230 hc         1 EIC       0.050700
     38 H112         9.3080    -1.5480     4.1320 hc         1 EIC       0.050700
     39 H121        10.6190    -2.0080     4.3010 ha         1 EIC       0.006000
     40 H131        11.3520    -3.3810     4.5270 ha         1 EIC       0.095000
     41 H141        11.0770    -4.7230     6.2880 hc         1 EIC       0.052200
     42 H142        10.0530    -4.0910     4.9900 hc         1 EIC       0.052200
     43 H151        11.7990    -4.6600     3.3360 hc         1 EIC       0.054200
     44 H152        12.8230    -5.2920     4.6330 hc         1 EIC       0.054200
     45 H161        11.0880    -6.9640     5.1880 hc         1 EIC       0.044200
     46 H162        10.0650    -6.3330     3.8900 hc         1 EIC       0.044200
     47 H171        12.8350    -7.5350     3.5330 hc         1 EIC       0.041700
     48 H172        11.8120    -6.9030     2.2350 hc         1 EIC       0.041700
     49 H181        11.1000    -9.2080     4.0850 hc         1 EIC       0.034033
     50 H182        11.6150    -9.3620     2.4000 hc         1 EIC       0.034033
     51 H183        10.0780    -8.5770     2.7870 hc         1 EIC       0.034033
@<TRIPOS>BOND
     1     1     2 1
     2     1    19 1
     3     1    20 1
     4     2     3 1
     5     2    21 1
     6     2    22 1
     7     3     4 1
     8     3    23 1
     9     3    24 1
    10     4     5 1
    11     4    25 1
    12     4    26 1
    13     5     6 1
    14     5    27 1
    15     5    28 1
    16     6     7 1
    17     6    29 1
    18     6    30 1
    19     7     8 1
    20     7    31 1
    21     7    32 1
    22     8     9 1
    23     8    33 1
    24     8    34 1
    25     9    10 2
    26     9    35 1
    27    10    11 1
    28    10    36 1
    29    11    12 1
    30    11    37 1
    31    11    38 1
    32    12    13 2
    33    12    39 1
    34    13    14 1
    35    13    40 1
    36    14    15 1
    37    14    41 1
    38    14    42 1
    39    15    16 1
    40    15    43 1
    41    15    44 1
    42    16    17 1
    43    16    45 1
    44    16    46 1
    45    17    18 1
    46    17    47 1
    47    17    48 1
    48    18    49 1
    49    18    50 1
    50    18    51 1
@<TRIPOS>SUBSTRUCTURE
     1 EIC         1 TEMP              0 ****  ****    0 ROOT
