@<TRIPOS>MOLECULE
EIM
   78    80     1     0     0
SMALL
bcc


@<TRIPOS>ATOM
      1 C1         -0.0090   -0.1120    0.0310 c3        1 EIM     -0.066400
      2 C2          1.4730    0.1800    0.1810 c3        1 EIM     -0.074400
      3 C3          2.0350   -0.1490    1.5540 c3        1 EIM     -0.044200
      4 C4          1.5870   -1.4700    2.0900 c2        1 EIM     -0.081400
      5 C5          0.1170   -1.6470    1.9580 c3        1 EIM     -0.033500
      6 C6         -0.3270   -1.5330    0.4720 c3        1 EIM     -0.040000
      7 C7         -0.5680   -2.9310    2.4350 c3        1 EIM      0.140100
      8 C8         -1.8910   -2.9790    1.6470 c3        1 EIM     -0.108400
      9 C9         -1.8300   -1.8830    0.5670 c3        1 EIM     -0.050700
     10 C10         2.3870   -2.3600    2.7010 ce        1 EIM     -0.144000
     11 C11         3.8200   -2.2480    2.8400 ce        1 EIM     -0.110000
     12 C12         4.5560   -2.8460    3.8000 cf        1 EIM     -0.071200
     13 C13         6.0400   -2.6820    3.8150 c3        1 EIM     -0.036200
     14 C14         6.7340   -4.0260    4.0180 c3        1 EIM      0.146100
     15 C15         6.2390   -4.7010    5.2910 c3        1 EIM     -0.146400
     16 C16         4.7300   -4.9200    5.2390 c3        1 EIM      0.187300
     17 C17         3.9930   -3.6540    4.8810 cf        1 EIM     -0.076200
     18 C18         2.8910   -3.3040    5.5550 c2        1 EIM     -0.187000
     19 C19        -2.5160   -2.3220   -0.7230 c3        1 EIM     -0.056700
     20 C20         0.4050   -2.5420   -0.3960 c3        1 EIM     -0.085100
     21 O21         4.3770   -5.9040    4.2690 oh        1 EIM     -0.589800
     22 O22         8.1270   -3.7500    4.0980 oh        1 EIM     -0.599800
     23 C23        -2.4270   -1.2580   -1.8000 c3        1 EIM     -0.091100
     24 C24        -3.9850   -2.6480   -0.4550 c3        1 EIM     -0.079400
     25 C25        -4.5450   -3.6120   -1.4810 c3        1 EIM     -0.079400
     26 C26        -6.0160   -3.8670   -1.2360 c3        1 EIM     -0.064400
     27 C27        -6.5840   -4.9820   -2.1200 c3        1 EIM      0.147800
     28 C28        -8.0720   -5.1540   -1.8300 c3        1 EIM     -0.123100
     29 C29        -6.3760   -4.6900   -3.6010 c3        1 EIM     -0.123100
     30 O30        -5.8830   -6.1730   -1.7540 oh        1 EIM     -0.597800
     31 O31        -0.7990   -2.8080    3.8380 os        1 EIM     -0.419600
     32 C33        -1.1750   -4.0320    4.4460 c3        1 EIM      0.114700
     33 H1         -0.3050    0.0410   -1.0390 hc        1 EIM      0.042700
     34 H1A        -0.6040    0.6110    0.6500 hc        1 EIM      0.042700
     35 H2          2.0390   -0.4000   -0.5950 hc        1 EIM      0.040200
     36 H2A         1.6510    1.2690   -0.0260 hc        1 EIM      0.040200
     37 H3          1.7020    0.6410    2.2840 hc        1 EIM      0.048200
     38 H3A         3.1540   -0.0960    1.5030 hc        1 EIM      0.048200
     39 H5         -0.3610   -0.7970    2.5340 hc        1 EIM      0.074700
     40 H7          0.0570   -3.8410    2.2280 h1        1 EIM      0.050700
     41 H8         -2.0200   -3.9870    1.1810 hc        1 EIM      0.052200
     42 H8A        -2.7510   -2.7990    2.3390 hc        1 EIM      0.052200
     43 H9         -2.3690   -0.9710    0.9480 hc        1 EIM      0.050700
     44 H10         1.9420   -3.2730    3.1440 ha        1 EIM      0.138000
     45 H11         4.3390   -1.6480    2.0700 ha        1 EIM      0.123000
     46 H13         6.4080   -2.2260    2.8590 hc        1 EIM      0.061700
     47 H13A        6.3310   -1.9890    4.6500 hc        1 EIM      0.061700
     48 H14         6.5320   -4.6990    3.1360 h1        1 EIM      0.047700
     49 H15         6.7590   -5.6840    5.4240 hc        1 EIM      0.052200
     50 H15A        6.4890   -4.0580    6.1740 hc        1 EIM      0.052200
     51 H16         4.3860   -5.2850    6.2520 h1        1 EIM      0.033700
     52 H18         2.4770   -3.9220    6.3630 ha        1 EIM      0.123000
     53 H18A        2.3390   -2.3800    5.3380 ha        1 EIM      0.123000
     54 H19        -2.0070   -3.2550   -1.0980 hc        1 EIM      0.052700
     55 H20         0.2080   -2.3430   -1.4770 hc        1 EIM      0.038367
     56 H20A        0.0670   -3.5800   -0.1560 hc        1 EIM      0.038367
     57 H20B        1.5070   -2.4860   -0.2200 hc        1 EIM      0.038367
     58 HO21        4.9090   -6.6850    4.4650 ho        1 EIM      0.395000
     59 HO22        8.5710   -4.5970    4.2140 ho        1 EIM      0.398000
     60 H23        -3.1540   -1.4720   -2.6210 hc        1 EIM      0.033700
     61 H23A       -2.6600   -0.2500   -1.3790 hc        1 EIM      0.033700
     62 H23B       -1.4040   -1.2310   -2.2470 hc        1 EIM      0.033700
     63 H24        -4.5820   -1.6990   -0.4600 hc        1 EIM      0.040700
     64 H24A       -4.1010   -3.1040    0.5630 hc        1 EIM      0.040700
     65 H25        -4.4010   -3.1960   -2.5140 hc        1 EIM      0.048200
     66 H25A       -3.9900   -4.5860   -1.4330 hc        1 EIM      0.048200
     67 H26        -6.1690   -4.1600   -0.1640 hc        1 EIM      0.047200
     68 H26A       -6.6050   -2.9340   -1.4270 hc        1 EIM      0.047200
     69 H28        -8.4920   -5.9870   -2.4420 hc        1 EIM      0.042367
     70 H28A       -8.2250   -5.3950   -0.7510 hc        1 EIM      0.042367
     71 H28B       -8.6210   -4.2150   -2.0750 hc        1 EIM      0.042367
     72 H29        -6.7480   -3.6670   -3.8450 hc        1 EIM      0.042367
     73 H29A       -5.2910   -4.7540   -3.8540 hc        1 EIM      0.042367
     74 H29B       -6.9300   -5.4330   -4.2230 hc        1 EIM      0.042367
     75 HO30       -6.2340   -6.8800   -2.3070 ho        1 EIM      0.397000
     76 H33        -2.1080   -4.4360    3.9810 h1        1 EIM      0.032367
     77 H33A       -1.3540   -3.7680    5.5180 h1        1 EIM      0.032367
     78 H33B       -0.3510   -4.7830    4.3600 h1        1 EIM      0.032367
@<TRIPOS>BOND
     1    1    2 1   
     2    1    6 1   
     3    1   33 1   
     4    1   34 1   
     5    2    3 1   
     6    2   35 1   
     7    2   36 1   
     8    3    4 1   
     9    3   37 1   
    10    3   38 1   
    11    4    5 1   
    12    4   10 2   
    13    5    6 1   
    14    5    7 1   
    15    5   39 1   
    16    6    9 1   
    17    6   20 1   
    18    7    8 1   
    19    7   31 1   
    20    7   40 1   
    21    8    9 1   
    22    8   41 1   
    23    8   42 1   
    24    9   19 1   
    25    9   43 1   
    26   10   11 1   
    27   10   44 1   
    28   11   12 2   
    29   11   45 1   
    30   12   13 1   
    31   12   17 1   
    32   13   14 1   
    33   13   46 1   
    34   13   47 1   
    35   14   15 1   
    36   14   22 1   
    37   14   48 1   
    38   15   16 1   
    39   15   49 1   
    40   15   50 1   
    41   16   17 1   
    42   16   21 1   
    43   16   51 1   
    44   17   18 2   
    45   18   52 1   
    46   18   53 1   
    47   19   23 1   
    48   19   24 1   
    49   19   54 1   
    50   20   55 1   
    51   20   56 1   
    52   20   57 1   
    53   21   58 1   
    54   22   59 1   
    55   23   60 1   
    56   23   61 1   
    57   23   62 1   
    58   24   25 1   
    59   24   63 1   
    60   24   64 1   
    61   25   26 1   
    62   25   65 1   
    63   25   66 1   
    64   26   27 1   
    65   26   67 1   
    66   26   68 1   
    67   27   28 1   
    68   27   29 1   
    69   27   30 1   
    70   28   69 1   
    71   28   70 1   
    72   28   71 1   
    73   29   72 1   
    74   29   73 1   
    75   29   74 1   
    76   30   75 1   
    77   31   32 1   
    78   32   76 1   
    79   32   77 1   
    80   32   78 1   
@<TRIPOS>SUBSTRUCTURE
     1 EIM         1 TEMP              0 ****  ****    0 ROOT
