@<TRIPOS>MOLECULE
molecule
   78    80     1     0     0
SMALL
bcc


@<TRIPOS>ATOM
      1 C1           0.0000     0.0000     0.0000 c3         1 EIM      -0.064400
      2 C2           1.5380     0.0000     0.0000 c3         1 EIM      -0.080400
      3 C3           2.1050     0.0000     1.4180 c3         1 EIM      -0.044200
      4 C4           1.4300    -1.0670     2.2680 c2         1 EIM      -0.094400
      5 C5          -0.0690    -1.0560     2.2370 c3         1 EIM      -0.029500
      6 C6          -0.4550    -1.2350     0.7400 c3         1 EIM      -0.062000
      7 C7          -0.7790    -2.2520     2.8740 c3         1 EIM       0.141100
      8 C8          -2.1580    -2.2560     2.1570 c3         1 EIM      -0.105400
      9 C9          -1.9460    -1.5340     0.8000 c3         1 EIM      -0.053700
     10 C10          2.1230    -1.9490     2.9890 ce         1 EIM      -0.155000
     11 C11          3.5870    -1.9130     2.9810 ce         1 EIM      -0.119000
     12 C12          4.2880    -2.8060     3.7100 cf         1 EIM      -0.081200
     13 C13          5.8040    -2.8020     3.7280 c3         1 EIM      -0.040200
     14 C14          6.2930    -4.2400     3.5380 c3         1 EIM       0.152100
     15 C15          5.7150    -5.1330     4.6370 c3         1 EIM      -0.102400
     16 C16          4.1950    -5.2350     4.4780 c3         1 EIM       0.188300
     17 C17          3.6160    -3.8310     4.5340 cf         1 EIM      -0.088200
     18 C18          2.5530    -3.5380     5.2850 c2         1 EIM      -0.212000
     19 C19         -2.3510    -2.4480    -0.3580 c3         1 EIM      -0.071700
     20 C20          0.2700    -2.4600     0.1780 c3         1 EIM      -0.093100
     21 O21          3.8810    -5.8400     3.2210 oh         1 EIM      -0.598800
     22 O22          7.7200    -4.2700     3.6030 oh         1 EIM      -0.610800
     23 C23         -2.1680    -1.7030    -1.6830 c3         1 EIM      -0.094100
     24 C24         -3.8190    -2.8520    -0.1980 c3         1 EIM      -0.082400
     25 C25         -4.1890    -3.8630    -1.2850 c3         1 EIM      -0.083400
     26 C26         -5.6560    -4.2680    -1.1250 c3         1 EIM      -0.065400
     27 C27         -6.0280    -5.2790    -2.2120 c3         1 EIM       0.146800
     28 C28         -7.5240    -5.5900    -2.1300 c3         1 EIM      -0.120100
     29 C29         -5.7020    -4.6920    -3.5870 c3         1 EIM      -0.120100
     30 O30         -5.2810    -6.4820    -2.0180 oh         1 EIM      -0.604800
     31 O31         -0.9410    -2.0550     4.2800 os         1 EIM      -0.421600
     32 C33         -0.9410    -3.2650     5.0410 c3         1 EIM       0.125700
     33 H1          -0.3660     0.8860     0.5050 hc         1 EIM       0.046200
     34 H1A         -0.3660    -0.0280    -1.0190 hc         1 EIM       0.046200
     35 H2           1.8890     0.8840    -0.5180 hc         1 EIM       0.043700
     36 H2A          1.8900    -0.8830    -0.5200 hc         1 EIM       0.043700
     37 H3           1.9370     0.9710     1.8680 hc         1 EIM       0.050200
     38 H3A          3.1690    -0.2000     1.3750 hc         1 EIM       0.050200
     39 H5          -0.4590    -0.1220     2.6240 hc         1 EIM       0.081700
     40 H7          -0.2400    -3.1690     2.6680 h1         1 EIM       0.053700
     41 H8          -2.8870    -1.7190     2.7520 hc         1 EIM       0.053700
     42 H8A         -2.4850    -3.2740     1.9870 hc         1 EIM       0.053700
     43 H9          -2.5130    -0.6110     0.7750 hc         1 EIM       0.056700
     44 H10          1.6030    -2.6930     3.5800 ha         1 EIM       0.145000
     45 H11          4.1080    -1.1700     2.3890 ha         1 EIM       0.134000
     46 H13          6.1750    -2.1820     2.9210 hc         1 EIM       0.057700
     47 H13A         6.1550    -2.4200     4.6790 hc         1 EIM       0.057700
     48 H14          5.9650    -4.6050     2.5720 h1         1 EIM       0.052700
     49 H15          6.1510    -6.1220     4.5620 hc         1 EIM       0.056700
     50 H15A         5.9470    -4.7050     5.6050 hc         1 EIM       0.056700
     51 H16          3.7850    -5.8290     5.2860 h1         1 EIM       0.036700
     52 H18          2.0790    -4.3110     5.8780 ha         1 EIM       0.124000
     53 H18A         2.1630    -2.5280     5.3000 ha         1 EIM       0.124000
     54 H19         -1.7300    -3.3350    -0.3530 hc         1 EIM       0.061700
     55 H20          0.0860    -2.5300    -0.8880 hc         1 EIM       0.041367
     56 H20A        -0.0970    -3.3540     0.6670 hc         1 EIM       0.041367
     57 H20B         1.3340    -2.3620     0.3550 hc         1 EIM       0.041367
     58 HO21         3.4520    -6.6660     3.3690 ho         1 EIM       0.400000
     59 HO22         8.0620    -4.6700     2.8210 ho         1 EIM       0.402000
     60 H23         -2.1030    -0.6390    -1.4930 hc         1 EIM       0.035700
     61 H23A        -3.0140    -1.9030    -2.3290 hc         1 EIM       0.035700
     62 H23B        -1.2580    -2.0410    -2.1640 hc         1 EIM       0.035700
     63 H24         -4.4470    -1.9750    -0.2910 hc         1 EIM       0.042200
     64 H24A        -3.9660    -3.3000     0.7770 hc         1 EIM       0.042200
     65 H25         -4.0420    -3.4150    -2.2600 hc         1 EIM       0.051200
     66 H25A        -3.5600    -4.7400    -1.1920 hc         1 EIM       0.051200
     67 H26         -6.2850    -3.3910    -1.2180 hc         1 EIM       0.048200
     68 H26A        -5.8030    -4.7160    -0.1500 hc         1 EIM       0.048200
     69 H28         -8.0900    -4.6740    -2.2560 hc         1 EIM       0.041367
     70 H28A        -7.7500    -6.0250    -1.1640 hc         1 EIM       0.041367
     71 H28B        -7.7910    -6.2890    -2.9130 hc         1 EIM       0.041367
     72 H29         -4.6450    -4.8100    -3.7890 hc         1 EIM       0.041367
     73 H29A        -5.9570    -3.6390    -3.6000 hc         1 EIM       0.041367
     74 H29B        -6.2750    -5.2110    -4.3460 hc         1 EIM       0.041367
     75 HO30        -5.6930    -7.1880    -2.4890 ho         1 EIM       0.401000
     76 H33         -0.4390    -4.0440     4.4810 h1         1 EIM       0.029033
     77 H33A        -1.9630    -3.5650     5.2410 h1         1 EIM       0.029033
     78 H33B        -0.4230    -3.1020     5.9780 h1         1 EIM       0.029033
@<TRIPOS>BOND
     1     1     2 1
     2     1     6 1
     3     2     3 1
     4     3     4 1
     5     4     5 1
     6     4    10 2
     7     5     6 1
     8     5     7 1
     9     6     9 1
    10     6    20 1
    11     7     8 1
    12     7    31 1
    13     8     9 1
    14     9    19 1
    15    10    11 1
    16    11    12 2
    17    12    13 1
    18    12    17 1
    19    13    14 1
    20    14    15 1
    21    14    22 1
    22    15    16 1
    23    16    17 1
    24    16    21 1
    25    17    18 2
    26    19    23 1
    27    19    24 1
    28    24    25 1
    29    25    26 1
    30    26    27 1
    31    27    28 1
    32    27    29 1
    33    27    30 1
    34    31    32 1
    35     1    33 1
    36     1    34 1
    37     2    35 1
    38     2    36 1
    39     3    37 1
    40     3    38 1
    41     5    39 1
    42     7    40 1
    43     8    41 1
    44     8    42 1
    45     9    43 1
    46    10    44 1
    47    11    45 1
    48    13    46 1
    49    13    47 1
    50    14    48 1
    51    15    49 1
    52    15    50 1
    53    16    51 1
    54    18    52 1
    55    18    53 1
    56    19    54 1
    57    20    55 1
    58    20    56 1
    59    20    57 1
    60    21    58 1
    61    22    59 1
    62    23    60 1
    63    23    61 1
    64    23    62 1
    65    24    63 1
    66    24    64 1
    67    25    65 1
    68    25    66 1
    69    26    67 1
    70    26    68 1
    71    28    69 1
    72    28    70 1
    73    28    71 1
    74    29    72 1
    75    29    73 1
    76    29    74 1
    77    30    75 1
    78    32    76 1
    79    32    77 1
    80    32    78 1
@<TRIPOS>SUBSTRUCTURE
     1 EIM         1 TEMP              0 ****  ****    0 ROOT
