@<TRIPOS>MOLECULE
molecule
   46    47     1     0     0
SMALL
bcc


@<TRIPOS>ATOM
      1 C14          0.0000     0.0000     0.0000 cp         1 EIN      -0.046000
      2 C15          1.3940     0.0000     0.0000 ca         1 EIN      -0.084000
      3 C16          2.0820     0.0000     1.1960 ca         1 EIN      -0.194500
      4 C17          1.3870    -0.0110     2.3980 ca         1 EIN       0.097100
      5 C1          -0.0020    -0.0110     2.4000 ca         1 EIN      -0.194500
      6 C2          -0.6950    -0.0060     1.2080 ca         1 EIN      -0.084000
      7 O1           2.0660    -0.0160     3.5740 os         1 EIN      -0.309900
      8 C3           3.4570    -0.0150     3.2480 c3         1 EIN       0.108700
      9 C4          -0.7410     0.0050    -1.2850 cp         1 EIN      -0.026000
     10 C5          -1.8910    -0.7700    -1.4320 ca         1 EIN      -0.150500
     11 C6          -2.5810    -0.7560    -2.6270 ca         1 EIN      -0.022000
     12 C7          -2.1270     0.0150    -3.6820 ca         1 EIN      -0.263500
     13 C8          -0.9840     0.7820    -3.5440 ca         1 EIN      -0.022000
     14 C9          -0.2900     0.7800    -2.3510 ca         1 EIN      -0.150500
     15 S1          -3.0090     0.0220    -5.2070 sy         1 EIN       1.372200
     16 O2          -2.6530     1.2370    -5.8540 o          1 EIN      -0.674300
     17 O3          -4.3340    -0.3820    -4.8900 o          1 EIN      -0.674300
     18 N1          -2.3820    -1.1890    -6.1470 n7         1 EIN      -0.821100
     19 C10         -2.5250    -2.5860    -5.7330 c3         1 EIN       0.102300
     20 C11         -1.3280    -2.9870    -4.8670 c3         1 EIN      -0.068700
     21 C12         -1.3820    -4.4900    -4.5880 c3         1 EIN      -0.084100
     22 C13         -0.0300    -2.6510    -5.6060 c3         1 EIN      -0.084100
     23 P1          -2.5920    -3.6540    -7.2090 p5         1 EIN       1.021700
     24 O4          -3.7820    -3.3040    -8.0170 o          1 EIN      -0.891833
     25 O5          -1.2620    -3.4350    -8.0910 o          1 EIN      -0.891833
     26 O6          -2.6870    -5.1950    -6.7530 o          1 EIN      -0.891833
     27 H15          1.9370     0.0070    -0.9380 ha         1 EIN       0.143000
     28 H16          3.1650    -0.0000     1.1980 ha         1 EIN       0.132000
     29 H1          -0.5420    -0.0180     3.3390 ha         1 EIN       0.132000
     30 H2          -1.7780    -0.0060     1.2100 ha         1 EIN       0.143000
     31 H31          3.6920     0.8730     2.6740 h1         1 EIN       0.038700
     32 H32          4.0420    -0.0210     4.1590 h1         1 EIN       0.038700
     33 H33          3.6920    -0.8960     2.6620 h1         1 EIN       0.038700
     34 H5          -2.2470    -1.3740    -0.6070 ha         1 EIN       0.118500
     35 H6          -3.4750    -1.3570    -2.7420 ha         1 EIN       0.156000
     36 H8          -0.6330     1.3850    -4.3730 ha         1 EIN       0.156000
     37 H9           0.6050     1.3810    -2.2430 ha         1 EIN       0.118500
     38 HN1         -1.9520    -0.9690    -7.0240 hn         1 EIN       0.477800
     39 H10         -3.4390    -2.7020    -5.1630 h1         1 EIN       0.052700
     40 H11         -1.3620    -2.4440    -3.9310 hc         1 EIN      -0.022300
     41 H121        -0.7760    -4.7180    -3.7200 hc         1 EIN       0.034200
     42 H122        -2.4070    -4.7860    -4.4020 hc         1 EIN       0.034200
     43 H123        -1.0000    -5.0310    -5.4460 hc         1 EIN       0.034200
     44 H131        -0.1280    -1.6840    -6.0860 hc         1 EIN       0.034200
     45 H132         0.1650    -3.4080    -6.3560 hc         1 EIN       0.034200
     46 H133         0.7900    -2.6220    -4.9000 hc         1 EIN       0.034200
@<TRIPOS>BOND
     1     1     2 ar
     2     1     6 ar
     3     1     9 1
     4     2     3 ar
     5     2    27 1
     6     3     4 ar
     7     3    28 1
     8     4     5 ar
     9     4     7 1
    10     5     6 ar
    11     5    29 1
    12     6    30 1
    13     7     8 1
    14     8    31 1
    15     8    32 1
    16     8    33 1
    17     9    10 ar
    18     9    14 ar
    19    10    11 ar
    20    10    34 1
    21    11    12 ar
    22    11    35 1
    23    12    13 ar
    24    12    15 1
    25    13    14 ar
    26    13    36 1
    27    14    37 1
    28    15    16 2
    29    15    17 2
    30    15    18 1
    31    18    19 1
    32    18    38 1
    33    19    20 1
    34    19    23 1
    35    19    39 1
    36    20    21 1
    37    20    22 1
    38    20    40 1
    39    21    41 1
    40    21    42 1
    41    21    43 1
    42    22    44 1
    43    22    45 1
    44    22    46 1
    45    23    24 1
    46    23    25 1
    47    23    26 1
@<TRIPOS>SUBSTRUCTURE
     1 EIN         1 TEMP              0 ****  ****    0 ROOT
