@<TRIPOS>MOLECULE
EIP
   26    25     1     0     0
SMALL
bcc


@<TRIPOS>ATOM
      1 O1          0.4450   -0.0030    1.8610 o         1 EIP     -0.959167
      2 O2          0.6470    1.5350   -0.1400 o         1 EIP     -0.959167
      3 O3          1.0320   -0.9540   -0.4050 o         1 EIP     -0.959167
      4 P4          1.0550    0.2400    0.5090 p5        1 EIP      1.460900
      5 O5          2.7950    0.5030    0.8490 os        1 EIP     -0.800800
      6 O6          4.6010    1.7980    2.1850 o         1 EIP     -0.933500
      7 O7          5.1830    0.8620   -0.0850 o         1 EIP     -0.933500
      8 P8          4.2920    0.8050    1.1120 p5        1 EIP      1.576800
      9 O9          4.8560   -0.6380    1.8780 os        1 EIP     -0.556200
     10 C10         6.1950   -0.6180    2.1660 c3        1 EIP      0.251400
     11 C11         6.4410   -0.5030    3.6820 c3        1 EIP     -0.130400
     12 C12         7.9180   -0.3520    4.0060 c3        1 EIP     -0.093700
     13 C13         8.0920    0.1910    5.4200 c3        1 EIP      0.123400
     14 C14         8.6690   -1.6560    3.8460 c3        1 EIP     -0.080100
     15 O15         9.4370    0.5660    5.7080 oh        1 EIP     -0.647800
     16 H101        6.6730   -1.5850    1.8180 h1        1 EIP     -0.021300
     17 H102        6.7110    0.2390    1.6430 h1        1 EIP     -0.021300
     18 H111        5.8740    0.3970    4.0430 hc        1 EIP      0.054200
     19 H112        6.0250   -1.4040    4.1970 hc        1 EIP      0.054200
     20 H12         8.3530    0.4020    3.2880 hc        1 EIP      0.049700
     21 H131        7.8500   -0.5920    6.1870 h1        1 EIP      0.040700
     22 H132        7.4280    1.0840    5.5740 h1        1 EIP      0.040700
     23 H141        8.2300   -2.4440    4.5050 hc        1 EIP      0.017700
     24 H142        8.6020   -2.0040    2.7880 hc        1 EIP      0.017700
     25 H143        9.7430   -1.5230    4.1230 hc        1 EIP      0.017700
     26 H15         9.7560    1.0510    4.9400 ho        1 EIP      0.391000
@<TRIPOS>BOND
     1    1    4 1   
     2    2    4 1   
     3    3    4 1   
     4    4    5 1   
     5    5    8 1   
     6    6    8 1   
     7    7    8 1   
     8    8    9 1   
     9    9   10 1   
    10   10   11 1   
    11   10   16 1   
    12   10   17 1   
    13   11   12 1   
    14   11   18 1   
    15   11   19 1   
    16   12   13 1   
    17   12   14 1   
    18   12   20 1   
    19   13   15 1   
    20   13   21 1   
    21   13   22 1   
    22   14   23 1   
    23   14   24 1   
    24   14   25 1   
    25   15   26 1   
@<TRIPOS>SUBSTRUCTURE
     1 EIP         1 TEMP              0 ****  ****    0 ROOT
