@<TRIPOS>MOLECULE
molecule
   26    25     1     0     0
SMALL
bcc


@<TRIPOS>ATOM
      1 O1           0.0000     0.0000     0.0000 o          1 EIP      -0.918833
      2 O2           2.1470     1.3110    -0.7610 o          1 EIP      -0.918833
      3 O3           2.1020    -1.2100    -0.6960 o          1 EIP      -0.918833
      4 P4           1.6100     0.0000     0.0000 p5         1 EIP       1.176900
      5 O5           2.1470     0.0000     1.5170 os         1 EIP      -0.652800
      6 O6           4.2570     1.3110     0.6570 o          1 EIP      -0.802000
      7 O7           4.2140    -1.2110     0.7230 o          1 EIP      -0.802000
      8 P8           3.7560    -0.0020     1.4410 p5         1 EIP       1.243800
      9 O9           4.3620     0.0000     2.9320 os         1 EIP      -0.555200
     10 C10          5.7850    -0.0020     2.7980 c3         1 EIP       0.166400
     11 C11          6.4280    -0.0000     4.1870 c3         1 EIP      -0.085400
     12 C12          7.9510    -0.0030     4.0440 c3         1 EIP      -0.070700
     13 C13          8.5940    -0.0010     5.4320 c3         1 EIP       0.134400
     14 C14          8.3900    -1.2530     3.2800 c3         1 EIP      -0.085100
     15 O15         10.0170    -0.0030     5.2990 oh         1 EIP      -0.619800
     16 H101         6.0950    -0.8880     2.2580 h1         1 EIP       0.048200
     17 H102         6.0980     0.8810     2.2550 h1         1 EIP       0.048200
     18 H111         6.1150    -0.8830     4.7310 hc         1 EIP       0.027700
     19 H112         6.1170     0.8860     4.7270 hc         1 EIP       0.027700
     20 H12          8.2640     0.8810     3.5000 hc         1 EIP       0.058700
     21 H131         8.2810    -0.8840     5.9760 h1         1 EIP       0.010200
     22 H132         8.2830     0.8850     5.9730 h1         1 EIP       0.010200
     23 H141         9.4230    -1.4760     3.5170 hc         1 EIP       0.035700
     24 H142         7.7650    -2.0900     3.5680 hc         1 EIP       0.035700
     25 H143         8.2930    -1.0790     2.2160 hc         1 EIP       0.035700
     26 H15         10.4100     0.2270     6.1240 ho         1 EIP       0.369000
@<TRIPOS>BOND
     1     1     4 1
     2     2     4 1
     3     3     4 1
     4     4     5 1
     5     5     8 1
     6     6     8 1
     7     7     8 1
     8     8     9 1
     9     9    10 1
    10    10    11 1
    11    10    16 1
    12    10    17 1
    13    11    12 1
    14    11    18 1
    15    11    19 1
    16    12    13 1
    17    12    14 1
    18    12    20 1
    19    13    15 1
    20    13    21 1
    21    13    22 1
    22    14    23 1
    23    14    24 1
    24    14    25 1
    25    15    26 1
@<TRIPOS>SUBSTRUCTURE
     1 EIP         1 TEMP              0 ****  ****    0 ROOT
