@<TRIPOS>MOLECULE
molecule
   47    47     1     0     0
SMALL
bcc


@<TRIPOS>ATOM
      1 C2           0.0000     0.0000     0.0000 cc         1 EJ1       0.005800
      2 C3           1.3580     0.0000     0.0000 cc         1 EJ1       0.070100
      3 C4           2.0490     0.0000     1.2370 cc         1 EJ1       0.005000
      4 C5           1.2960    -0.0000     2.4340 cc         1 EJ1      -0.143200
      5 C6          -0.0540     0.0010     2.3680 cd         1 EJ1       0.051000
      6 CB           6.1680    -0.4080     1.4860 c3         1 EJ1      -0.147700
      7 O3           2.0460     0.0010    -1.1730 oh         1 EJ1      -0.462100
      8 O1P          2.1580    -1.3770     6.7430 o          1 EJ1      -0.852833
      9 O2P          0.0680     0.1310     7.2640 o          1 EJ1      -0.852833
     10 O3P          2.3030     1.1420     6.6630 o          1 EJ1      -0.852833
     11 O4P          1.0180    -0.0000     4.8160 os         1 EJ1      -0.596200
     12 N            4.1480    -0.0010     0.1500 nf         1 EJ1      -0.503300
     13 P            1.4070    -0.0010     6.3780 p5         1 EJ1       1.203900
     14 C2A         -0.7480    -0.0060    -1.3080 c3         1 EJ1      -0.039900
     15 C4A          3.4600    -0.0010     1.2740 cf         1 EJ1      -0.073400
     16 C5A          1.9930    -0.0010     3.7700 c3         1 EJ1       0.269600
     17 N1          -0.6910    -0.0000     1.1700 na         1 EJ1      -0.590800
     18 CA           5.4680    -0.1330     0.1800 ce         1 EJ1       0.325300
     19 C            6.2080    -0.0200    -0.9980 c          1 EJ1       0.799300
     20 O            5.5810     0.2260    -2.1710 o          1 EJ1      -0.854800
     21 CG           6.4900     0.9160     2.1810 c3         1 EJ1      -0.093400
     22 CD           7.2010     0.6390     3.5070 c3         1 EJ1       0.228800
     23 NE           7.5090     1.9070     4.1710 nu         1 EJ1      -0.833200
     24 CZ           8.1510     1.9080     5.3870 c2         1 EJ1       0.688100
     25 NH1          8.4400     3.0990     6.0100 nz         1 EJ1      -0.808600
     26 NH2          8.4860     0.7790     5.9480 n2         1 EJ1      -0.822100
     27 OXT          7.4220    -0.1430    -0.9700 o          1 EJ1      -0.854800
     28 H1          -0.6350     0.0000     3.2820 h4         1 EJ1       0.199000
     29 H2           7.0870    -0.9490     1.2970 hc         1 EJ1       0.052700
     30 H3           5.5240    -1.0020     2.1230 hc         1 EJ1       0.052700
     31 H4           2.0720    -0.8750    -1.5230 ho         1 EJ1       0.404000
     32 H7          -0.3620     0.7780    -1.9480 hc         1 EJ1       0.036367
     33 H8          -0.6180    -0.9660    -1.7940 hc         1 EJ1       0.036367
     34 H9          -1.8020     0.1650    -1.1220 hc         1 EJ1       0.036367
     35 H10          3.9770    -0.0010     2.2250 h4         1 EJ1       0.102000
     36 H12          2.6120    -0.8860     3.8540 h1         1 EJ1       0.029200
     37 H13          2.6140     0.8830     3.8550 h1         1 EJ1       0.029200
     38 H15          5.5700     1.4570     2.3700 hc         1 EJ1       0.055700
     39 H16          7.1330     1.5110     1.5440 hc         1 EJ1       0.055700
     40 H17          8.1200     0.0970     3.3180 h1         1 EJ1       0.071200
     41 H18          6.5570     0.0440     4.1440 h1         1 EJ1       0.071200
     42 H19          7.2760     2.7740     3.7280 hn         1 EJ1       0.444800
     43 H20          9.3230     3.4400     5.6850 hn         1 EJ1       0.409800
     44 H21          8.4830     2.9560     7.0000 hn         1 EJ1       0.409800
     45 H22          8.9530     0.7780     6.8330 hn         1 EJ1       0.404400
     46 H11         -1.6910    -0.0000     1.1470 hn         1 EJ1       0.422800
     47 HH13         7.7240     3.7660     5.8040 hn         1 EJ1       0.409800
@<TRIPOS>BOND
     1    27    19 1
     2    19    20 1
     3    19    18 1
     4    21    22 1
     5    21     6 1
     6    18    12 2
     7    18     6 1
     8    12    15 1
     9     7     2 1
    10    22    23 1
    11    10    13 1
    12    15     3 2
    13     9    13 1
    14     2     3 1
    15     2     1 2
    16    23    24 1
    17     3     4 1
    18    13    11 1
    19    13     8 1
    20    11    16 1
    21    14     1 1
    22    26    24 2
    23     1    17 1
    24    24    25 1
    25     4    16 1
    26     4     5 2
    27    17     5 1
    28     5    28 1
    29     6    29 1
    30     6    30 1
    31     7    31 1
    32    14    32 1
    33    14    33 1
    34    14    34 1
    35    15    35 1
    36    16    36 1
    37    16    37 1
    38    21    38 1
    39    21    39 1
    40    22    40 1
    41    22    41 1
    42    23    42 1
    43    25    43 1
    44    25    44 1
    45    26    45 1
    46    17    46 1
    47    47    25 1
@<TRIPOS>SUBSTRUCTURE
     1 EJ1         1 TEMP              0 ****  ****    0 ROOT
