@<TRIPOS>MOLECULE
EJ4
   57    64     1     0     0
SMALL
bcc


@<TRIPOS>ATOM
      1 CAB          0.0000     0.0000     0.0000 ca         1 EJ4       0.101100
      2 CAC          1.4010     0.0000     0.0000 ca         1 EJ4       0.133100
      3 CAE          3.5940     0.4490    -0.4800 c3         1 EJ4       0.290300
      4 CAF          3.6740     1.9530    -0.5330 cc         1 EJ4      -0.293300
      5 CAG          3.6550     2.7540     0.5540 cd         1 EJ4      -0.116400
      6 CAH          3.7450     4.1200     0.0840 ca         1 EJ4      -0.098800
      7 CAI          3.7680     5.3520     0.7440 ca         1 EJ4      -0.041000
      8 CAJ          3.8610     6.4750    -0.0400 ca         1 EJ4      -0.137000
      9 CAK          3.9300     6.4040    -1.4220 ca         1 EJ4      -0.083000
     10 CAL          3.9100     5.1990    -2.1020 ca         1 EJ4      -0.106000
     11 CAM          3.8160     4.0410    -1.3310 ca         1 EJ4      -0.226200
     12 CAO          3.5520     2.2540     1.9710 c3         1 EJ4       0.019800
     13 CAP          4.1510     0.8420     2.0390 c3         1 EJ4       0.206800
     14 CAR          3.7770     0.2320     3.3980 c3         1 EJ4       0.105500
     15 CAV          3.5340    -0.0410     0.9640 c3         1 EJ4      -0.017700
     16 CAW          2.0490     0.0000     1.2250 ca         1 EJ4      -0.182300
     17 CAX          1.4400     0.1010     2.4560 ca         1 EJ4      -0.038300
     18 CAY          0.0570     0.0970     2.4440 ca         1 EJ4      -0.118000
     19 CAZ         -0.6310     0.0390     1.2410 ca         1 EJ4      -0.107000
     20 NAN          3.7740     2.7190    -1.6660 na         1 EJ4       0.401600
     21 NAS          4.3130    -1.1310     3.4890 n3         1 EJ4      -0.517600
     22 OAA         -0.7110    -0.0300    -1.1580 oh         1 EJ4      -0.483100
     23 OAD          2.3000     0.0460    -1.0070 os         1 EJ4      -0.291900
     24 OAQ          5.5690     0.8990     1.8770 oh         1 EJ4      -0.563800
     25 CBA          2.2830     0.2320     3.6820 c3         1 EJ4      -0.001100
     26 CBB          4.1260    -1.6810     4.8380 c3         1 EJ4       0.184800
     27 CBC          4.9090    -2.9890     4.9690 cx         1 EJ4      -0.117700
     28 CBD          6.0510    -3.0300     5.9860 cx         1 EJ4      -0.079400
     29 CBE          4.7490    -3.7820     6.2680 cx         1 EJ4      -0.079400
     30 H1           4.4070    -0.0150    -1.0250 h1         1 EJ4       0.053700
     31 H2           3.7140     5.4180     1.8240 ha         1 EJ4       0.103000
     32 H3           3.8810     7.4470     0.4380 ha         1 EJ4       0.098000
     33 H4           4.0030     7.3240    -1.9900 ha         1 EJ4       0.096000
     34 H5           3.9650     5.1580    -3.1830 ha         1 EJ4       0.106000
     35 H6           2.5110     2.2210     2.2690 hc         1 EJ4       0.034200
     36 H7           4.1040     2.9140     2.6290 hc         1 EJ4       0.034200
     37 H8           4.2560     0.8260     4.1660 h1         1 EJ4       0.032700
     38 H9           2.6480    -2.0430     2.6050 h1         1 EJ4       0.021700
     39 H10          4.1340    -3.0090     2.5800 h1         1 EJ4       0.021700
     40 H13         -0.4910     0.1250     3.3780 ha         1 EJ4       0.107000
     41 H14         -1.7140     0.0230     1.2680 ha         1 EJ4       0.109000
     42 H15          3.8100     2.3610    -2.6000 hn         1 EJ4       0.113700
     43 H17         -0.9680    -0.9170    -1.3460 ho         1 EJ4       0.398000
     44 H18          5.9290     1.5260     2.4820 ho         1 EJ4       0.394000
     45 H19          2.0580    -0.5950     4.3450 hc         1 EJ4       0.034700
     46 H20          2.0270     1.1600     4.1790 hc         1 EJ4       0.034700
     47 H21          3.0730    -1.8720     5.0070 h1         1 EJ4       0.012700
     48 H22          4.4860    -0.9700     5.5710 h1         1 EJ4       0.012700
     49 H23          5.0680    -3.5950     4.0850 hc         1 EJ4       0.068700
     50 H24          6.8980    -3.6480     5.7130 hc         1 EJ4       0.044200
     51 H25          6.1990    -2.1220     6.5580 hc         1 EJ4       0.044200
     52 H26          4.8000    -4.8590     6.1680 hc         1 EJ4       0.044200
     53 H27          4.1020    -3.3340     7.0120 hc         1 EJ4       0.044200
     54 CAT          3.7230    -2.0120     2.4740 c3         1 EJ4       0.132800
     55 CAU          4.0510    -1.4720     1.0790 c3         1 EJ4      -0.006400
     56 H11          5.1240    -1.4820     0.9310 hc         1 EJ4       0.032700
     57 H12          3.5710    -2.0910     0.3300 hc         1 EJ4       0.032700
@<TRIPOS>BOND
     1     1     2 ar  
     2     1    19 ar  
     3     1    22 1   
     4     2    16 ar  
     5     2    23 1   
     6     3     4 1   
     7     3    15 1   
     8     3    23 1   
     9     3    30 1   
    10     4     5 2   
    11     4    20 1   
    12     5     6 1   
    13     5    12 1   
    14     6     7 ar  
    15     6    11 ar  
    16     7     8 ar  
    17     7    31 1   
    18     8     9 ar  
    19     8    32 1   
    20     9    10 ar  
    21     9    33 1   
    22    10    11 ar  
    23    10    34 1   
    24    11    20 1   
    25    12    13 1   
    26    12    35 1   
    27    12    36 1   
    28    13    14 1   
    29    13    15 1   
    30    13    24 1   
    31    14    21 1   
    32    14    25 1   
    33    14    37 1   
    34    15    16 1   
    35    15    55 1   
    36    16    17 ar  
    37    17    18 ar  
    38    17    25 1   
    39    18    19 ar  
    40    18    40 1   
    41    19    41 1   
    42    20    42 1   
    43    21    26 1   
    44    21    54 1   
    45    22    43 1   
    46    24    44 1   
    47    25    45 1   
    48    25    46 1   
    49    26    27 1   
    50    26    47 1   
    51    26    48 1   
    52    27    28 1   
    53    27    29 1   
    54    27    49 1   
    55    28    29 1   
    56    28    50 1   
    57    28    51 1   
    58    29    52 1   
    59    29    53 1   
    60    38    54 1   
    61    39    54 1   
    62    54    55 1   
    63    55    56 1   
    64    55    57 1   
@<TRIPOS>SUBSTRUCTURE
     1 EJ4         1 TEMP              0 ****  ****    0 ROOT
