@<TRIPOS>MOLECULE
molecule
   57    64     1     0     0
SMALL
bcc


@<TRIPOS>ATOM
      1 CAB          0.0000     0.0000     0.0000 ca         1 EJ4       0.087100
      2 CAC          1.4010     0.0000     0.0000 ca         1 EJ4       0.126100
      3 CAE          3.5940     0.4490    -0.4800 c3         1 EJ4       0.225300
      4 CAF          3.6740     1.9530    -0.5330 cc         1 EJ4      -0.079300
      5 CAG          3.6550     2.7540     0.5540 cd         1 EJ4      -0.121400
      6 CAH          3.7450     4.1200     0.0840 ca         1 EJ4      -0.100800
      7 CAI          3.7680     5.3520     0.7440 ca         1 EJ4      -0.075000
      8 CAJ          3.8610     6.4750    -0.0400 ca         1 EJ4      -0.161000
      9 CAK          3.9300     6.4040    -1.4220 ca         1 EJ4      -0.107000
     10 CAL          3.9100     5.1990    -2.1020 ca         1 EJ4      -0.145000
     11 CAM          3.8160     4.0410    -1.3310 ca         1 EJ4      -0.029200
     12 CAO          3.5520     2.2540     1.9710 c3         1 EJ4      -0.035200
     13 CAP          4.1510     0.8420     2.0390 c3         1 EJ4       0.190800
     14 CAR          3.7770     0.2320     3.3980 c3         1 EJ4       0.152500
     15 CAV          3.5340    -0.0410     0.9640 c3         1 EJ4      -0.012700
     16 CAW          2.0490     0.0000     1.2250 ca         1 EJ4      -0.173300
     17 CAX          1.4400     0.1010     2.4560 ca         1 EJ4      -0.033300
     18 CAY          0.0570     0.0970     2.4440 ca         1 EJ4      -0.147000
     19 CAZ         -0.6310     0.0390     1.2410 ca         1 EJ4      -0.122000
     20 NAN          3.7740     2.7190    -1.6660 na         1 EJ4      -0.156400
     21 NAS          4.3130    -1.1310     3.4890 n3         1 EJ4      -0.708600
     22 OAA         -0.7110    -0.0300    -1.1580 oh         1 EJ4      -0.502100
     23 OAD          2.3000     0.0460    -1.0070 os         1 EJ4      -0.303900
     24 OAQ          5.5690     0.8990     1.8770 oh         1 EJ4      -0.576800
     25 CBA          2.2830     0.2320     3.6820 c3         1 EJ4      -0.066100
     26 CBB          4.1260    -1.6810     4.8380 c3         1 EJ4       0.193800
     27 CBC          4.9090    -2.9890     4.9690 cx         1 EJ4      -0.131700
     28 CBD          6.0510    -3.0300     5.9860 cx         1 EJ4      -0.136900
     29 CBE          4.7490    -3.7820     6.2680 cx         1 EJ4      -0.136900
     30 H1           4.4070    -0.0150    -1.0250 h1         1 EJ4       0.103700
     31 H2           3.7140     5.4180     1.8240 ha         1 EJ4       0.132000
     32 H3           3.8810     7.4470     0.4380 ha         1 EJ4       0.124000
     33 H4           4.0030     7.3240    -1.9900 ha         1 EJ4       0.126000
     34 H5           3.9650     5.1580    -3.1830 ha         1 EJ4       0.133000
     35 H6           2.5110     2.2210     2.2690 hc         1 EJ4       0.060700
     36 H7           4.1040     2.9140     2.6290 hc         1 EJ4       0.060700
     37 H8           4.2560     0.8260     4.1660 h1         1 EJ4       0.060700
     38 H9           2.6480    -2.0430     2.6050 h1         1 EJ4       0.042700
     39 H10          4.1340    -3.0090     2.5800 h1         1 EJ4       0.042700
     40 H13         -0.4910     0.1250     3.3780 ha         1 EJ4       0.135000
     41 H14         -1.7140     0.0230     1.2680 ha         1 EJ4       0.140000
     42 H15          3.8100     2.3610    -2.6000 hn         1 EJ4       0.301700
     43 H17         -0.9680    -0.9170    -1.3460 ho         1 EJ4       0.415000
     44 H18          5.9290     1.5260     2.4820 ho         1 EJ4       0.406000
     45 H19          2.0580    -0.5950     4.3450 hc         1 EJ4       0.061200
     46 H20          2.0270     1.1600     4.1790 hc         1 EJ4       0.061200
     47 H21          3.0730    -1.8720     5.0070 h1         1 EJ4       0.036200
     48 H22          4.4860    -0.9700     5.5710 h1         1 EJ4       0.036200
     49 H23          5.0680    -3.5950     4.0850 hc         1 EJ4       0.088700
     50 H24          6.8980    -3.6480     5.7130 hc         1 EJ4       0.073200
     51 H25          6.1990    -2.1220     6.5580 hc         1 EJ4       0.073200
     52 H26          4.8000    -4.8590     6.1680 hc         1 EJ4       0.073200
     53 H27          4.1020    -3.3340     7.0120 hc         1 EJ4       0.073200
     54 CAT          3.7230    -2.0120     2.4740 c3         1 EJ4       0.159800
     55 CAU          4.0510    -1.4720     1.0790 c3         1 EJ4      -0.058400
     56 H11          5.1240    -1.4820     0.9310 hc         1 EJ4       0.063200
     57 H12          3.5710    -2.0910     0.3300 hc         1 EJ4       0.063200
@<TRIPOS>BOND
     1     9    10 ar
     2     9     8 ar
     3    10    11 ar
     4     8     7 ar
     5    11    20 1
     6    11     6 ar
     7    20     4 1
     8     7     6 ar
     9     6     5 1
    10     4     5 2
    11     4     3 1
    12     5    12 1
    13     3    23 1
    14     3    15 1
    15    23     2 1
    16    12    13 1
    17    24    13 1
    18    13    15 1
    19    13    14 1
    20    15    16 1
    21    15    55 1
    22     2    16 ar
    23     2     1 ar
    24    22     1 1
    25    16    17 ar
    26    55    54 1
    27     1    19 ar
    28    14    25 1
    29    14    21 1
    30    17    25 1
    31    17    18 ar
    32    19    18 ar
    33    21    54 1
    34    21    26 1
    35    26    27 1
    36    28    27 1
    37    28    29 1
    38    27    29 1
    39     3    30 1
    40     7    31 1
    41     8    32 1
    42     9    33 1
    43    10    34 1
    44    12    35 1
    45    12    36 1
    46    14    37 1
    47    54    38 1
    48    54    39 1
    49    55    56 1
    50    55    57 1
    51    18    40 1
    52    19    41 1
    53    20    42 1
    54    22    43 1
    55    24    44 1
    56    25    45 1
    57    25    46 1
    58    26    47 1
    59    26    48 1
    60    27    49 1
    61    28    50 1
    62    28    51 1
    63    29    52 1
    64    29    53 1
@<TRIPOS>SUBSTRUCTURE
     1 EJ4         1 TEMP              0 ****  ****    0 ROOT
