@<TRIPOS>MOLECULE
molecule
   36    37     1     0     0
SMALL
bcc


@<TRIPOS>ATOM
      1 CAF          0.0000     0.0000     0.0000 ca         1 EJ5      -0.154500
      2 CAH          1.3790     0.0000     0.0000 ca         1 EJ5      -0.099500
      3 CAR          2.0740     0.0000     1.2100 ca         1 EJ5      -0.090600
      4 CAO          3.5510     0.0010     1.2180 c          1 EJ5       0.877200
      5 OAD          4.2190     0.0010     2.3880 o          1 EJ5      -0.828800
      6 OAB          4.1640     0.0020     0.1700 o          1 EJ5      -0.828800
      7 CAI          1.3660    -0.0000     2.4140 ca         1 EJ5      -0.099500
      8 CAG         -0.0130    -0.0000     2.4000 ca         1 EJ5      -0.154500
      9 CAQ         -0.6950     0.0040     1.1960 ca         1 EJ5      -0.134300
     10 CAK         -2.2020     0.0040     1.1890 c3         1 EJ5      -0.018100
     11 CAJ         -2.7110    -1.4380     1.1920 c3         1 EJ5      -0.069400
     12 CAL         -4.2420    -1.4390     1.1850 c3         1 EJ5      -0.033200
     13 CAT         -4.7440    -2.8600     1.1880 cc         1 EJ5      -0.135400
     14 CAS         -5.0880    -3.4830     2.3750 cd         1 EJ5       0.327700
     15 OAE         -4.9760    -2.8180     3.5480 oh         1 EJ5      -0.424100
     16 NAM         -5.5310    -4.7430     2.3590 nd         1 EJ5      -0.639300
     17 CAP         -5.6480    -5.4110     1.2290 cc         1 EJ5       0.456800
     18 NAA         -6.1080    -6.7010     1.2570 nz         1 EJ5      -0.729600
     19 NAN         -5.3240    -4.8440     0.0360 ns         1 EJ5      -0.447400
     20 CAU         -4.8770    -3.5720    -0.0100 c          1 EJ5       0.686700
     21 OAC         -4.5870    -3.0540    -1.0770 o          1 EJ5      -0.545500
     22 HAF         -0.5400     0.0020    -0.9390 ha         1 EJ5       0.103000
     23 HAH          1.9220    -0.0040    -0.9370 ha         1 EJ5       0.155000
     24 HAG         -0.5630     0.0010     3.3330 ha         1 EJ5       0.103000
     25 HAK         -2.5590     0.5110     0.3010 hc         1 EJ5       0.041200
     26 HAKA        -2.5670     0.5180     2.0700 hc         1 EJ5       0.041200
     27 HAJ         -2.3460    -1.9520     0.3110 hc         1 EJ5       0.054700
     28 HAJA        -2.3540    -1.9450     2.0800 hc         1 EJ5       0.054700
     29 HAL         -4.6070    -0.9250     2.0660 hc         1 EJ5       0.078700
     30 HNAA        -6.9710    -6.7590     0.7540 hn         1 EJ5       0.476133
     31 HNAB        -6.2550    -6.9820     2.2060 hn         1 EJ5       0.476133
     32 HAI          1.8990    -0.0020     3.3570 ha         1 EJ5       0.155000
     33 H13         -4.5990    -0.9320     0.2970 hc         1 EJ5       0.078700
     34 H14         -5.5630    -3.1980     4.1820 ho         1 EJ5       0.446000
     35 HNAN        -5.4230    -5.3700    -0.8100 hn         1 EJ5       0.344500
     36 HAA3        -5.4320    -7.3050     0.8320 hn         1 EJ5       0.476133
@<TRIPOS>BOND
     1     1     2 ar
     2     1    22 1
     3     2     3 ar
     4     2    23 1
     5     3     4 1
     6     4     5 1
     7     6     4 1
     8     7     3 ar
     9     8     7 ar
    10     8    24 1
    11     9     1 ar
    12     9     8 ar
    13    10     9 1
    14    10    11 1
    15    10    25 1
    16    10    26 1
    17    11    12 1
    18    11    27 1
    19    11    28 1
    20    12    13 1
    21    12    29 1
    22    13    20 1
    23    14    13 2
    24    14    16 1
    25    15    14 1
    26    16    17 2
    27    17    19 1
    28    17    18 1
    29    18    30 1
    30    18    31 1
    31    20    19 1
    32    20    21 2
    33     7    32 1
    34    12    33 1
    35    15    34 1
    36    19    35 1
    37    36    18 1
@<TRIPOS>SUBSTRUCTURE
     1 EJ5         1 TEMP              0 ****  ****    0 ROOT
