@<TRIPOS>MOLECULE
EJ5
   36    37     1     0     0
SMALL
bcc


@<TRIPOS>ATOM
      1 CAF          0.0000     0.0000     0.0000 ca         1 EJ5      -0.134000
      2 CAH          1.3790     0.0000     0.0000 ca         1 EJ5      -0.069000
      3 CAR          2.0740     0.0000     1.2100 ca         1 EJ5      -0.097600
      4 CAO          3.5510     0.0010     1.2180 c          1 EJ5       0.966200
      5 OAD          4.2190     0.0010     2.3880 o          1 EJ5      -0.848300
      6 OAB          4.1640     0.0020     0.1700 o          1 EJ5      -0.848300
      7 CAI          1.3660    -0.0000     2.4140 ca         1 EJ5      -0.069000
      8 CAG         -0.0130    -0.0000     2.4000 ca         1 EJ5      -0.134000
      9 CAQ         -0.6950     0.0040     1.1960 ca         1 EJ5      -0.141300
     10 CAK         -2.2020     0.0040     1.1890 c3         1 EJ5       0.048900
     11 CAJ         -2.7110    -1.4380     1.1920 c3         1 EJ5      -0.020400
     12 CAL         -4.2420    -1.4390     1.1850 c3         1 EJ5       0.030800
     13 CAT         -4.7440    -2.8600     1.1880 cc         1 EJ5      -0.131400
     14 CAS         -5.0880    -3.4830     2.3750 cd         1 EJ5       0.285700
     15 OAE         -4.9760    -2.8180     3.5480 oh         1 EJ5      -0.414100
     16 NAM         -5.5310    -4.7430     2.3590 nd         1 EJ5      -0.483300
     17 CAP         -5.6480    -5.4110     1.2290 cc         1 EJ5      -0.024200
     18 NAA         -6.1080    -6.7010     1.2570 nz         1 EJ5       0.229400
     19 NAN         -5.3240    -4.8440     0.0360 ns         1 EJ5       0.037600
     20 CAU         -4.8770    -3.5720    -0.0100 c          1 EJ5       0.582700
     21 OAC         -4.5870    -3.0540    -1.0770 o          1 EJ5      -0.592500
     22 HAF         -0.5400     0.0020    -0.9390 ha         1 EJ5       0.087000
     23 HAH          1.9220    -0.0040    -0.9370 ha         1 EJ5       0.127500
     24 HAG         -0.5630     0.0010     3.3330 ha         1 EJ5       0.087000
     25 HAK         -2.5590     0.5110     0.3010 hc         1 EJ5       0.012200
     26 HAKA        -2.5670     0.5180     2.0700 hc         1 EJ5       0.012200
     27 HAJ         -2.3460    -1.9520     0.3110 hc         1 EJ5       0.024700
     28 HAJA        -2.3540    -1.9450     2.0800 hc         1 EJ5       0.024700
     29 HAL         -4.6070    -0.9250     2.0660 hc         1 EJ5       0.043700
     30 HNAA        -6.9710    -6.7590     0.7540 hn         1 EJ5       0.211800
     31 HNAB        -6.2550    -6.9820     2.2060 hn         1 EJ5       0.211800
     32 HAI          1.8990    -0.0020     3.3570 ha         1 EJ5       0.127500
     33 H13         -4.5990    -0.9320     0.2970 hc         1 EJ5       0.043700
     34 H14         -5.5630    -3.1980     4.1820 ho         1 EJ5       0.419000
     35 HNAN        -5.4230    -5.3700    -0.8100 hn         1 EJ5       0.182500
     36 HAA3        -5.4320    -7.3050     0.8320 hn         1 EJ5       0.211800
@<TRIPOS>BOND
     1     1     2 ar  
     2     1     9 ar  
     3     1    22 1   
     4     2     3 ar  
     5     2    23 1   
     6     3     4 1   
     7     3     7 ar  
     8     4     5 1   
     9     4     6 1   
    10     7     8 ar  
    11     7    32 1   
    12     8     9 ar  
    13     8    24 1   
    14     9    10 1   
    15    10    11 1   
    16    10    25 1   
    17    10    26 1   
    18    11    12 1   
    19    11    27 1   
    20    11    28 1   
    21    12    13 1   
    22    12    29 1   
    23    12    33 1   
    24    13    14 2   
    25    13    20 1   
    26    14    15 1   
    27    14    16 1   
    28    15    34 1   
    29    16    17 2   
    30    17    18 1   
    31    17    19 1   
    32    18    30 1   
    33    18    31 1   
    34    18    36 1   
    35    19    20 1   
    36    19    35 1   
    37    20    21 2   
@<TRIPOS>SUBSTRUCTURE
     1 EJ5         1 TEMP              0 ****  ****    0 ROOT
