@<TRIPOS>MOLECULE
EJ7
   46    49     1     0     0
SMALL
bcc


@<TRIPOS>ATOM
      1 C1           0.0000     0.0000     0.0000 ca         1 EJ7      -0.078400
      2 C10         -0.3820     1.2470     4.5110 c3         1 EJ7      -0.021100
      3 C11         -0.3900    -1.2630     4.5090 cx         1 EJ7      -0.165700
      4 C12         -1.4410    -1.6800     5.5590 cx         1 EJ7       0.086100
      5 C14         -3.0330    -0.3940     4.3630 c2         1 EJ7       0.332500
      6 C17         -0.1130    -1.0670     6.0020 cx         1 EJ7      -0.017400
      7 C19         -0.8750    -0.5320    -3.5950 ca         1 EJ7       0.114500
      8 C2           1.3890     0.0000     0.0000 ca         1 EJ7      -0.058000
      9 C22         -2.5940     0.2780    -4.8770 ca         1 EJ7       0.247900
     10 C23         -2.0690    -0.3810    -5.9900 ca         1 EJ7       0.550300
     11 C25         -0.3540    -1.1940    -4.7050 ca         1 EJ7       0.421900
     12 C27         -2.1000    -0.9860    -8.2850 c3         1 EJ7       0.253700
     13 C3           2.0790     0.0000     1.1960 ca         1 EJ7      -0.092000
     14 C4           1.3860     0.0000     2.3960 ca         1 EJ7       0.104900
     15 C5           0.0020     0.0000     2.3980 ca         1 EJ7      -0.136300
     16 C6          -0.6930     0.0000     1.2040 ca         1 EJ7      -0.110000
     17 C9          -0.7500     0.0000     3.7040 c3         1 EJ7       0.231500
     18 F7           2.0630     0.0010     3.5650 f          1 EJ7      -0.125900
     19 N15         -2.1940    -0.0150     3.4450 n2         1 EJ7      -0.425900
     20 N21         -1.9900     0.1880    -3.7120 nb         1 EJ7      -0.514000
     21 N24         -0.9630    -1.1020    -5.8740 nb         1 EJ7      -0.641000
     22 N8          -0.7010     0.0050    -1.2120 ns         1 EJ7      -0.026100
     23 O13         -2.6010    -0.8280     5.5850 os         1 EJ7      -0.363400
     24 O20          0.8190    -1.2960    -2.1770 o          1 EJ7      -0.631100
     25 O26         -2.6920    -0.2870    -7.1890 os         1 EJ7      -0.414100
     26 H102        -1.0610     1.3490     5.3490 hc         1 EJ7       0.037367
     27 H103        -0.4580     2.1230     3.8770 hc         1 EJ7       0.037367
     28 H101         0.6330     1.1540     4.8780 hc         1 EJ7       0.037367
     29 H90          0.1340    -2.0800     4.0290 hc         1 EJ7       0.104700
     30 H88         -1.5510    -2.7500     5.6930 h1         1 EJ7       0.096700
     31 H171        -0.1660    -0.0450     6.3580 hc         1 EJ7       0.076700
     32 H92          0.5970    -1.7590     6.4400 hc         1 EJ7       0.076700
     33 H21          1.9310    -0.0000    -0.9380 ha         1 EJ7       0.154000
     34 H221        -3.4990     0.8660    -4.9730 h4         1 EJ7       0.006100
     35 H251         0.5500    -1.7840    -4.6100 h4         1 EJ7       0.014100
     36 H271        -1.0940    -0.6180    -8.4470 h1         1 EJ7       0.008367
     37 H272        -2.6910    -0.8250    -9.1790 h1         1 EJ7       0.008367
     38 H273        -2.0650    -2.0460    -8.0610 h1         1 EJ7       0.008367
     39 H31          3.1620    -0.0000     1.1970 ha         1 EJ7       0.134000
     40 H61         -1.7760     0.0000     1.2060 ha         1 EJ7       0.111000
     41 HAC         -4.6510    -1.2810     3.7320 hn         1 EJ7       0.222800
     42 HAB         -4.8870    -0.2010     4.9360 hn         1 EJ7       0.222800
     43 HAA         -1.5750     0.4880    -1.2820 hn         1 EJ7       0.187500
     44 H163        -4.5820     0.3290     3.4260 hn         1 EJ7       0.222800
     45 N16         -4.3790    -0.3880     4.0940 nz         1 EJ7       0.210400
     46 C18         -0.1960    -0.6350    -2.2850 c          1 EJ7       0.497600
@<TRIPOS>BOND
     1     1     8 ar  
     2     1    16 ar  
     3     1    22 1   
     4     2    17 1   
     5     2    26 1   
     6     2    27 1   
     7     2    28 1   
     8     3     4 1   
     9     3     6 1   
    10     3    17 1   
    11     3    29 1   
    12     4     6 1   
    13     4    23 1   
    14     4    30 1   
    15     5    19 2   
    16     5    23 1   
    17     5    45 1   
    18     6    31 1   
    19     6    32 1   
    20     7    11 ar  
    21     7    20 ar  
    22     7    46 1   
    23     8    13 ar  
    24     8    33 1   
    25     9    10 ar  
    26     9    20 ar  
    27     9    34 1   
    28    10    21 ar  
    29    10    25 1   
    30    11    21 ar  
    31    11    35 1   
    32    12    25 1   
    33    12    36 1   
    34    12    37 1   
    35    12    38 1   
    36    13    14 ar  
    37    13    39 1   
    38    14    15 ar  
    39    14    18 1   
    40    15    16 ar  
    41    15    17 1   
    42    16    40 1   
    43    17    19 1   
    44    22    43 1   
    45    22    46 1   
    46    24    46 2   
    47    41    45 1   
    48    42    45 1   
    49    44    45 1   
@<TRIPOS>SUBSTRUCTURE
     1 EJ7         1 TEMP              0 ****  ****    0 ROOT
