@<TRIPOS>MOLECULE
molecule
   46    49     1     0     0
SMALL
bcc


@<TRIPOS>ATOM
      1 C1           0.0000     0.0000     0.0000 ca         1 EJ7       0.059600
      2 C10         -0.3820     1.2470     4.5110 c3         1 EJ7      -0.098100
      3 C11         -0.3900    -1.2630     4.5090 cx         1 EJ7      -0.174700
      4 C12         -1.4410    -1.6800     5.5590 cx         1 EJ7       0.043100
      5 C14         -3.0330    -0.3940     4.3630 c2         1 EJ7       0.602500
      6 C17         -0.1130    -1.0670     6.0020 cx         1 EJ7      -0.069400
      7 C19         -0.8750    -0.5320    -3.5950 ca         1 EJ7       0.174500
      8 C2           1.3890     0.0000     0.0000 ca         1 EJ7      -0.086000
      9 C22         -2.5940     0.2780    -4.8770 ca         1 EJ7       0.277900
     10 C23         -2.0690    -0.3810    -5.9900 ca         1 EJ7       0.573300
     11 C25         -0.3540    -1.1940    -4.7050 ca         1 EJ7       0.420900
     12 C27         -2.1000    -0.9860    -8.2850 c3         1 EJ7       0.130700
     13 C3           2.0790     0.0000     1.1960 ca         1 EJ7      -0.132000
     14 C4           1.3860     0.0000     2.3960 ca         1 EJ7       0.125900
     15 C5           0.0020     0.0000     2.3980 ca         1 EJ7      -0.120300
     16 C6          -0.6930     0.0000     1.2040 ca         1 EJ7      -0.127000
     17 C9          -0.7500     0.0000     3.7040 c3         1 EJ7       0.242500
     18 F7           2.0630     0.0010     3.5650 f          1 EJ7      -0.137900
     19 N15         -2.1940    -0.0150     3.4450 n2         1 EJ7      -0.568900
     20 N21         -1.9900     0.1880    -3.7120 nb         1 EJ7      -0.626000
     21 N24         -0.9630    -1.1020    -5.8740 nb         1 EJ7      -0.738000
     22 N8          -0.7010     0.0050    -1.2120 ns         1 EJ7      -0.466100
     23 O13         -2.6010    -0.8280     5.5850 os         1 EJ7      -0.400400
     24 O20          0.8190    -1.2960    -2.1770 o          1 EJ7      -0.590100
     25 O26         -2.6920    -0.2870    -7.1890 os         1 EJ7      -0.423100
     26 H102        -1.0610     1.3490     5.3490 hc         1 EJ7       0.068367
     27 H103        -0.4580     2.1230     3.8770 hc         1 EJ7       0.068367
     28 H101         0.6330     1.1540     4.8780 hc         1 EJ7       0.068367
     29 H90          0.1340    -2.0800     4.0290 hc         1 EJ7       0.131700
     30 H88         -1.5510    -2.7500     5.6930 h1         1 EJ7       0.135700
     31 H171        -0.1660    -0.0450     6.3580 hc         1 EJ7       0.111200
     32 H92          0.5970    -1.7590     6.4400 hc         1 EJ7       0.111200
     33 H21          1.9310    -0.0000    -0.9380 ha         1 EJ7       0.182000
     34 H221        -3.4990     0.8660    -4.9730 h4         1 EJ7       0.050100
     35 H251         0.5500    -1.7840    -4.6100 h4         1 EJ7       0.062100
     36 H271        -1.0940    -0.6180    -8.4470 h1         1 EJ7       0.057367
     37 H272        -2.6910    -0.8250    -9.1790 h1         1 EJ7       0.057367
     38 H273        -2.0650    -2.0460    -8.0610 h1         1 EJ7       0.057367
     39 H31          3.1620    -0.0000     1.1970 ha         1 EJ7       0.166000
     40 H61         -1.7760     0.0000     1.2060 ha         1 EJ7       0.139000
     41 HAC         -4.6510    -1.2810     3.7320 hn         1 EJ7       0.478800
     42 HAB         -4.8870    -0.2010     4.9360 hn         1 EJ7       0.478800
     43 HAA         -1.5750     0.4880    -1.2820 hn         1 EJ7       0.345500
     44 H163        -4.5820     0.3290     3.4260 hn         1 EJ7       0.478800
     45 N16         -4.3790    -0.3880     4.0940 nz         1 EJ7      -0.730600
     46 C18         -0.1960    -0.6350    -2.2850 c          1 EJ7       0.592600
@<TRIPOS>BOND
     1    12    25 1
     2    25    10 1
     3    10     9 ar
     4    10    21 ar
     5     9    20 ar
     6    21    11 ar
     7    20     7 ar
     8    11     7 ar
     9     7    46 1
    10    46    24 2
    11    46    22 1
    12    22     1 1
    13    45     5 1
    14     1    16 ar
    15     1     8 ar
    16    16    15 ar
    17     5    19 2
    18     5    23 1
    19     8    13 ar
    20    19    17 1
    21    23     4 1
    22    15    17 1
    23    15    14 ar
    24    13    14 ar
    25    17     2 1
    26    17     3 1
    27    14    18 1
    28     4     3 1
    29     4     6 1
    30     3     6 1
    31     2    26 1
    32     2    27 1
    33     2    28 1
    34     3    29 1
    35     4    30 1
    36     6    31 1
    37     6    32 1
    38     8    33 1
    39     9    34 1
    40    11    35 1
    41    12    36 1
    42    12    37 1
    43    12    38 1
    44    13    39 1
    45    16    40 1
    46    45    41 1
    47    45    42 1
    48    22    43 1
    49    44    45 1
@<TRIPOS>SUBSTRUCTURE
     1 EJ7         1 TEMP              0 ****  ****    0 ROOT
