@<TRIPOS>MOLECULE
molecule
   52    55     1     0     0
SMALL
bcc


@<TRIPOS>ATOM
      1 C2'          0.0000     0.0000     0.0000 c3         1 EJ8      -0.191400
      2 C1'          1.5460     0.0000     0.0000 c3         1 EJ8       0.311500
      3 O2           1.4950    -0.3630    -2.6540 o          1 EJ8      -0.721500
      4 O9           1.7850    -6.4820     3.5500 o          1 EJ8      -0.905500
      5 P2           3.3030    -6.5990     3.0280 p5         1 EJ8       1.033700
      6 O10          3.9790    -5.2910     3.1810 o          1 EJ8      -0.905500
      7 O11          4.0810    -7.7080     3.8970 o          1 EJ8      -0.905500
      8 C18          3.3130    -7.0870     1.2720 c3         1 EJ8      -0.121500
      9 S1           2.4370    -5.8350     0.2930 ss         1 EJ8      -0.367200
     10 C5           3.0340    -3.3280    -0.5690 cc         1 EJ8      -0.253400
     11 C4           2.5760    -2.2230     0.0560 cd         1 EJ8       0.050600
     12 C6           2.9580    -3.4020    -1.9800 c          1 EJ8       0.707700
     13 O6           3.3690    -4.3870    -2.5670 o          1 EJ8      -0.656500
     14 N1           2.4260    -2.3730    -2.6690 ns         1 EJ8      -0.568500
     15 C8           1.9720    -1.2840    -2.0190 c          1 EJ8       0.815500
     16 N9           2.0430    -1.1990    -0.6790 n          1 EJ8      -0.362000
     17 O4'          1.9790     0.0000     1.3660 os         1 EJ8      -0.442600
     18 C3'         -0.3170     0.5380     1.4140 c3         1 EJ8       0.124100
     19 O3'         -1.5890     0.1190     1.8600 os         1 EJ8      -0.367600
     20 C4'          0.8310    -0.0790     2.2400 c3         1 EJ8       0.058100
     21 C5'          0.5580    -1.5670     2.4890 c3         1 EJ8       0.079400
     22 O7          -0.7770    -1.7510     2.9580 os         1 EJ8      -0.340600
     23 CAB         -1.7620    -1.2880     2.0260 c3         1 EJ8       0.314700
     24 P           -3.4320    -1.6310     2.6720 p5         1 EJ8       1.017700
     25 OP1         -3.6170    -0.8990     4.0950 o          1 EJ8      -0.884500
     26 OP2         -4.4440    -1.1220     1.7200 o          1 EJ8      -0.884500
     27 OP3         -3.6200    -3.2190     2.8570 o          1 EJ8      -0.884500
     28 C2          -1.5750    -1.9830     0.7020 ca         1 EJ8      -0.069300
     29 CAA         -0.7290    -3.0720     0.6060 ca         1 EJ8      -0.098500
     30 C9          -0.5570    -3.7090    -0.6080 ca         1 EJ8      -0.170500
     31 C10         -1.2330    -3.2590    -1.7260 ca         1 EJ8      -0.177000
     32 C11         -2.0800    -2.1710    -1.6310 ca         1 EJ8      -0.170500
     33 C12         -2.2550    -1.5370    -0.4150 ca         1 EJ8      -0.098500
     34 H1          -0.3850     0.6680    -0.7610 hc         1 EJ8       0.098200
     35 H2          -0.3850    -1.0050    -0.1250 hc         1 EJ8       0.098200
     36 H3           1.9110     0.8890    -0.4990 h2         1 EJ8       0.053700
     37 H6           2.8180    -8.0440     1.1600 h1         1 EJ8       0.037200
     38 H7           4.3360    -7.1660     0.9250 h1         1 EJ8       0.037200
     39 H8           4.5370    -4.8020    -0.2500 h1         1 EJ8       0.085200
     40 H9           3.8430    -4.1270     1.2310 h1         1 EJ8       0.085200
     41 H10          2.7330    -2.0990     1.1210 h4         1 EJ8       0.215000
     42 H11          2.3680    -2.4170    -3.6670 hn         1 EJ8       0.325500
     43 H12         -0.2490     1.6190     1.4280 h1         1 EJ8       0.036700
     44 H13          0.9950     0.4600     3.1650 h1         1 EJ8       0.078700
     45 H14          1.2520    -1.9380     3.2330 h1         1 EJ8       0.069200
     46 H15          0.6890    -2.1140     1.5630 h1         1 EJ8       0.069200
     47 H18         -0.2600    -3.4720     1.4970 ha         1 EJ8       0.178000
     48 H19          0.0510    -4.6040    -0.6670 ha         1 EJ8       0.114000
     49 H20         -1.1410    -3.7920    -2.6650 ha         1 EJ8       0.080000
     50 H21         -2.6460    -1.8470    -2.4960 ha         1 EJ8       0.114000
     51 H22         -3.1370    -0.9480    -0.6370 ha         1 EJ8       0.178000
     52 C17          3.6240    -4.4650     0.2250 c3         1 EJ8       0.080900
@<TRIPOS>BOND
     1     6     5 1
     2     4     5 1
     3     5     7 1
     4     5     8 1
     5    13    12 2
     6    12    14 1
     7    12    10 1
     8    52     9 1
     9    52    10 1
    10     8     9 1
    11    14    15 1
    12    10    11 2
    13    15     3 2
    14    15    16 1
    15    11    16 1
    16    16     2 1
    17     2     1 1
    18     2    17 1
    19     1    18 1
    20    30    29 ar
    21    30    31 ar
    22    17    20 1
    23    29    28 ar
    24    19    18 1
    25    19    23 1
    26    18    20 1
    27    31    32 ar
    28    20    21 1
    29    28    23 1
    30    28    33 ar
    31    32    33 ar
    32    23    22 1
    33    23    24 1
    34    22    21 1
    35    26    24 1
    36    24    25 1
    37    24    27 1
    38     1    34 1
    39     1    35 1
    40     2    36 1
    41     8    37 1
    42     8    38 1
    43    52    39 1
    44    52    40 1
    45    11    41 1
    46    14    42 1
    47    18    43 1
    48    20    44 1
    49    21    45 1
    50    21    46 1
    51    29    47 1
    52    30    48 1
    53    31    49 1
    54    32    50 1
    55    33    51 1
@<TRIPOS>SUBSTRUCTURE
     1 EJ8         1 TEMP              0 ****  ****    0 ROOT
