@<TRIPOS>MOLECULE
molecule
   21    22     1     0     0
SMALL
bcc


@<TRIPOS>ATOM
      1 C10          0.0000     0.0000     0.0000 cc         1 EJD      -0.032000
      2 C13          0.3170    -0.0050     2.2630 cd         1 EJD      -0.096100
      3 C04         -2.3040     0.0170    -3.5650 ca         1 EJD      -0.082600
      4 C05         -0.9070     0.0120    -3.6340 ca         1 EJD      -0.100000
      5 C06         -0.1670     0.0060    -2.4860 ca         1 EJD      -0.144500
      6 C07         -0.8040     0.0060    -1.2440 ca         1 EJD      -0.066000
      7 C08         -2.1980     0.0120    -1.1730 ca         1 EJD      -0.144500
      8 C09         -2.9410     0.0220    -2.3190 ca         1 EJD      -0.100000
      9 C11          1.3450     0.0000     0.0000 cd         1 EJD      -0.111100
     10 C14         -0.5730     0.0000     1.2730 cc         1 EJD      -0.135000
     11 O01         -2.5500     0.0240    -5.8840 o          1 EJD      -0.835800
     12 O03         -4.4510     0.0290    -4.7350 o          1 EJD      -0.835800
     13 S12          1.9440     0.0000     1.5980 ss         1 EJD      -0.185800
     14 H1           0.0760    -0.0070     3.3190 h4         1 EJD       0.157000
     15 H2          -0.4130     0.0010    -4.5970 ha         1 EJD       0.146500
     16 H3           0.9150    -0.0000    -2.5400 ha         1 EJD       0.106500
     17 H4          -2.6910     0.0070    -0.2080 ha         1 EJD       0.106500
     18 H5          -4.0090     0.0350    -2.1420 ha         1 EJD       0.146500
     19 H6           1.9620     0.0030    -0.8900 h4         1 EJD       0.173000
     20 H7          -1.6440    -0.0010     1.4410 ha         1 EJD       0.152000
     21 C02         -3.1040     0.0240    -4.8030 c          1 EJD       0.879200
@<TRIPOS>BOND
     1    11    21 1
     2    21    12 1
     3    21     3 1
     4     8     3 ar
     5     8     7 ar
     6     3     4 ar
     7     7     6 ar
     8     4     5 ar
     9     6     5 ar
    10     6     1 1
    11     9     1 2
    12     9    13 1
    13     1    10 1
    14    13     2 1
    15    10     2 2
    16     2    14 1
    17     4    15 1
    18     5    16 1
    19     7    17 1
    20     8    18 1
    21     9    19 1
    22    10    20 1
@<TRIPOS>SUBSTRUCTURE
     1 EJD         1 TEMP              0 ****  ****    0 ROOT
