@<TRIPOS>MOLECULE
molecule
   44    45     1     0     0
SMALL
bcc


@<TRIPOS>ATOM
      1 C2           0.0000     0.0000     0.0000 c          1 EJH       0.820500
      2 C4          -0.0430     0.0010     2.3360 c          1 EJH       0.707700
      3 C5           1.3730     0.0010     2.3500 cc         1 EJH      -0.349400
      4 C6           2.0420     0.0000     1.1780 cd         1 EJH      -0.127400
      5 C7           2.1220     0.0020     3.6570 c3         1 EJH       0.018100
      6 O2          -0.6120     0.0210    -1.0510 o          1 EJH      -0.653500
      7 N1           1.3450     0.0000     0.0000 n          1 EJH      -0.296000
      8 N3          -0.6930     0.0010     1.1540 ns         1 EJH      -0.571500
      9 O4          -0.6490    -0.0100     3.3540 o          1 EJH      -0.707500
     10 PA          -0.5330     4.0860    -4.5110 p5         1 EJH       1.467800
     11 PB          -1.0770     7.0310    -4.2980 p5         1 EJH       1.276600
     12 PG          -1.3840     9.8860    -3.5140 p5         1 EJH       1.122700
     13 C1'          2.0140    -0.0010    -1.1500 c3         1 EJH       0.261500
     14 O1A         -1.9250     3.5040    -4.5490 o          1 EJH      -0.857000
     15 O2B         -0.9870     7.1120    -5.8030 o          1 EJH      -0.779000
     16 O1G         -2.8270     9.5790    -3.1960 o          1 EJH      -0.842833
     17 C2'          1.4730    -1.1070    -2.0830 c3         1 EJH      -0.120400
     18 O2A         -0.0010     4.2100    -5.9180 o          1 EJH      -0.857000
     19 O1B         -2.5200     6.8660    -3.8880 o          1 EJH      -0.779000
     20 Cl1          0.9300     8.3170    -2.5420 cl         1 EJH      -0.377400
     21 O2G         -1.2990    10.5730    -4.8560 o          1 EJH      -0.842833
     22 C3'          0.8130    -0.4930    -2.9900 c3         1 EJH       0.084100
     23 O3'          0.9470    -1.1910    -4.2690 oh         1 EJH      -0.637800
     24 O3A         -0.5800     5.5800    -3.8080 os         1 EJH      -0.724800
     25 C3B         -0.8220     8.2430    -2.9600 c3         1 EJH      -0.172700
     26 O3G         -0.9330    11.0760    -2.7020 o          1 EJH      -0.842833
     27 C4'          1.4830     1.0000    -3.0900 c3         1 EJH       0.104100
     28 O4'          1.5030     1.3360    -1.7490 os         1 EJH      -0.356600
     29 C5'          0.3200     1.7090    -3.7920 c3         1 EJH       0.219400
     30 O5'          0.4540     3.0960    -3.6350 os         1 EJH      -0.587200
     31 H1           3.1220     0.0710     1.1700 h4         1 EJH       0.128000
     32 H2           3.1780    -0.1530     3.4680 hc         1 EJH       0.012700
     33 H3           1.7480    -0.7950     4.2890 hc         1 EJH       0.012700
     34 H4           1.9800     0.9540     4.1540 hc         1 EJH       0.012700
     35 H5          -1.6880    -0.1070     1.1410 hn         1 EJH       0.339500
     36 H6           3.0970    -0.0160    -1.1450 h2         1 EJH       0.071700
     37 H9           2.2950    -1.6560    -2.5270 hc         1 EJH       0.035700
     38 H10          0.8210    -1.7740    -1.5330 hc         1 EJH       0.035700
     39 H13         -0.2300    -0.4150    -2.7060 h1         1 EJH       0.122700
     40 H14          0.1530    -1.6630    -4.4550 ho         1 EJH       0.380000
     41 H15         -1.3890     7.9420    -2.0870 h1         1 EJH       0.122700
     42 H16          2.4250     1.2690    -3.5540 h1         1 EJH       0.067700
     43 H17          0.3300     1.4630    -4.8470 h1         1 EJH       0.028700
     44 H18         -0.6170     1.3860    -3.3540 h1         1 EJH       0.028700
@<TRIPOS>BOND
     1     6     1 2
     2     1     8 1
     3     1     7 1
     4     8     2 1
     5    17    13 1
     6    17    22 1
     7    13     7 1
     8    13    28 1
     9     7     4 1
    10     2     9 2
    11     2     3 1
    12    23    22 1
    13    22    27 1
    14    28    27 1
    15     4     3 2
    16     3     5 1
    17    27    29 1
    18    15    11 1
    19    29    30 1
    20    30    10 1
    21    24    11 1
    22    24    10 1
    23    11    19 1
    24    11    25 1
    25    10    18 1
    26    10    14 1
    27    20    25 1
    28    25    12 1
    29    12    26 1
    30    12    16 1
    31    12    21 1
    32     4    31 1
    33     5    32 1
    34     5    33 1
    35     5    34 1
    36     8    35 1
    37    13    36 1
    38    17    37 1
    39    17    38 1
    40    22    39 1
    41    23    40 1
    42    25    41 1
    43    27    42 1
    44    29    43 1
    45    29    44 1
@<TRIPOS>SUBSTRUCTURE
     1 EJH         1 TEMP              0 ****  ****    0 ROOT
