@<TRIPOS>MOLECULE
molecule
   53    57     1     0     0
SMALL
bcc


@<TRIPOS>ATOM
      1 N1           4.9990     1.8620    11.6150 n1         1 EJP      -0.355800
      2 N3           0.0000     0.0000     0.0000 na         1 EJP       0.136400
      3 C4          -2.5030    -3.3770    -1.4920 ca         1 EJP      -0.130000
      4 C5           4.4190    -0.8590     9.5260 ca         1 EJP      -0.083000
      5 C6          -0.2730    -2.0770    -2.4830 ca         1 EJP      -0.099500
      6 C7          -2.2390    -2.0740    -1.1160 ca         1 EJP      -0.099500
      7 C8           3.8140    -1.6590     8.5810 ca         1 EJP      -0.147000
      8 C10          3.8580     0.3780     9.8570 ca         1 EJP      -0.024000
      9 C13          2.6530    -1.2350     7.9510 ca         1 EJP       0.045600
     10 C15          0.5440     0.0180     2.0490 cc         1 EJP       0.270800
     11 C17          0.6140     0.0370     3.5250 c          1 EJP       0.673000
     12 C20          2.9950     0.6580     3.3000 c3         1 EJP       0.115000
     13 C21          1.0900     0.8780     6.2990 c3         1 EJP       0.123400
     14 C22          2.0130    -0.0420     5.5020 c3         1 EJP       0.017700
     15 C24         -0.8370    -0.0010    -1.2020 c3         1 EJP       0.113600
     16 C1           4.4840     1.2100    10.8400 cg         1 EJP       0.238800
     17 C2          -1.6520    -4.0310    -2.3630 ca         1 EJP      -0.111000
     18 C3          -0.5370    -3.3800    -2.8580 ca         1 EJP      -0.130000
     19 C9           2.6850     0.8030     9.2250 ca         1 EJP      -0.090000
     20 C11          1.7460     0.0000     1.2790 cc         1 EJP      -0.250600
     21 C12         -1.1240    -1.4230    -1.6110 ca         1 EJP      -0.132300
     22 C14          2.0930     0.0040     8.2690 ca         1 EJP       0.082100
     23 C16          1.3570     0.0000     0.0000 cd         1 EJP      -0.009900
     24 C18          1.6690    -1.5050     5.8070 c          1 EJP       0.692500
     25 C19          3.0980    -0.0220     1.9340 c3         1 EJP      -0.011100
     26 N2          -0.4490     0.0080     1.2110 nd         1 EJP      -0.429800
     27 N4           2.0310    -2.0420     6.9940 n          1 EJP      -0.389000
     28 N5           1.8400     0.2180     4.0710 n          1 EJP      -0.482800
     29 O1          -0.3780    -0.1010     4.2140 o          1 EJP      -0.598500
     30 O2           1.0710    -2.1740     4.9910 o          1 EJP      -0.587500
     31 O3           0.9590     0.4120     7.6390 os         1 EJP      -0.324900
     32 Cl1          2.3910    -0.0010    -1.3940 cl         1 EJP      -0.055400
     33 H1          -3.3760    -3.8870    -1.1040 ha         1 EJP       0.134500
     34 H2           5.3300    -1.1870    10.0120 ha         1 EJP       0.148000
     35 H3           0.6000    -1.5680    -2.8710 ha         1 EJP       0.137500
     36 H4          -2.9060    -1.5620    -0.4330 ha         1 EJP       0.137500
     37 H5           4.2500    -2.6170     8.3260 ha         1 EJP       0.149000
     38 H6           2.9240     1.7280     3.1500 h1         1 EJP       0.046700
     39 H7           3.8920     0.4380     3.8650 h1         1 EJP       0.046700
     40 H8           1.5060     1.8780     6.3080 h1         1 EJP       0.086200
     41 H9           0.1140     0.8960     5.8300 h1         1 EJP       0.086200
     42 H10          3.0410     0.1500     5.7850 h1         1 EJP       0.075700
     43 H11         -1.7690     0.5100    -0.9940 h1         1 EJP       0.080700
     44 H12         -0.3170     0.5080    -2.0050 h1         1 EJP       0.080700
     45 H13         -1.8580    -5.0530    -2.6580 ha         1 EJP       0.132000
     46 H14          0.1300    -3.8920    -3.5410 ha         1 EJP       0.134500
     47 H15          2.2480     1.7610     9.4790 ha         1 EJP       0.159000
     48 H16          3.7820     0.5520     1.3200 hc         1 EJP       0.069700
     49 H17          3.3830    -1.0550     2.0900 hc         1 EJP       0.069700
     50 H18          2.4770    -4.0680     6.7210 h1         1 EJP       0.051033
     51 H19          0.7640    -3.7070     6.9720 h1         1 EJP       0.051033
     52 H20          1.8900    -3.6420     8.3350 h1         1 EJP       0.051033
     53 C23          1.7740    -3.4570     7.2740 c3         1 EJP       0.105300
@<TRIPOS>BOND
     1     3    17 ar
     2     3     6 ar
     3    17    18 ar
     4     6    21 ar
     5    18     5 ar
     6    21     5 ar
     7    21    15 1
     8    15     2 1
     9    26     2 1
    10    26    10 2
    11     2    23 1
    12    29    11 2
    13    10    11 1
    14    10    20 1
    15    23    32 1
    16    23    20 2
    17    11    28 1
    18     1    16 3
    19    20    25 1
    20    16     8 1
    21    28    12 1
    22    28    14 1
    23    13    14 1
    24    13    31 1
    25    12    25 1
    26    19     8 ar
    27    19    22 ar
    28     8     4 ar
    29    14    24 1
    30    31    22 1
    31     4     7 ar
    32    22     9 ar
    33     7     9 ar
    34     9    27 1
    35    24    27 1
    36    24    30 2
    37    27    53 1
    38     3    33 1
    39     4    34 1
    40     5    35 1
    41     6    36 1
    42     7    37 1
    43    12    38 1
    44    12    39 1
    45    13    40 1
    46    13    41 1
    47    14    42 1
    48    15    43 1
    49    15    44 1
    50    17    45 1
    51    18    46 1
    52    19    47 1
    53    25    48 1
    54    25    49 1
    55    53    50 1
    56    53    51 1
    57    53    52 1
@<TRIPOS>SUBSTRUCTURE
     1 EJP         1 TEMP              0 ****  ****    0 ROOT
