@<TRIPOS>MOLECULE
molecule
   35    35     1     0     0
SMALL
bcc


@<TRIPOS>ATOM
      1 C10          0.0000     0.0000     0.0000 ca         1 EJV      -0.100000
      2 C13          1.3920     0.0100     2.4000 ca         1 EJV      -0.158000
      3 C01          9.6690    -4.3850     1.1770 c3         1 EJV      -0.092100
      4 C02          8.1390    -4.3730     1.1850 c3         1 EJV      -0.084400
      5 C03          7.6400    -2.9260     1.1810 c3         1 EJV      -0.082400
      6 C04          6.1090    -2.9150     1.1890 c3         1 EJV      -0.082400
      7 C05          5.6100    -1.4690     1.1860 c3         1 EJV      -0.084400
      8 C06          4.0800    -1.4580     1.1930 c3         1 EJV      -0.076400
      9 C07          3.5810    -0.0110     1.1900 c3         1 EJV      -0.027100
     10 C08          2.0740     0.0000     1.1970 ca         1 EJV      -0.116300
     11 C09          1.3800     0.0000     0.0000 ca         1 EJV      -0.158000
     12 C11         -0.6950     0.0040     1.2100 ca         1 EJV      -0.103600
     13 C12          0.0120     0.0100     2.4140 ca         1 EJV      -0.100000
     14 C14         -2.1720     0.0040     1.2170 c          1 EJV       0.882200
     15 O15         -2.8400     0.0090     2.3880 o          1 EJV      -0.839300
     16 O16         -2.7850     0.0000     0.1680 o          1 EJV      -0.839300
     17 H1          -0.5430    -0.0020    -0.9380 ha         1 EJV       0.148500
     18 H2           1.9420     0.0150     3.3330 ha         1 EJV       0.103500
     19 H3          10.0220    -5.4090     1.1800 hc         1 EJV       0.029367
     20 H4          10.0290    -3.8810     0.2880 hc         1 EJV       0.029367
     21 H5          10.0390    -3.8730     2.0570 hc         1 EJV       0.029367
     22 H6           7.7780    -4.8760     2.0740 hc         1 EJV       0.039700
     23 H7           7.7690    -4.8850     0.3050 hc         1 EJV       0.039700
     24 H8           8.0000    -2.4230     0.2920 hc         1 EJV       0.038200
     25 H9           8.0100    -2.4140     2.0610 hc         1 EJV       0.038200
     26 H10          5.7400    -3.4270     0.3080 hc         1 EJV       0.041700
     27 H11          5.7490    -3.4200     2.0770 hc         1 EJV       0.041700
     28 H12          5.9710    -0.9640     0.2980 hc         1 EJV       0.035700
     29 H13          5.9790    -0.9570     2.0670 hc         1 EJV       0.035700
     30 H14          3.7200    -1.9620     2.0810 hc         1 EJV       0.046200
     31 H15          3.7120    -1.9690     0.3120 hc         1 EJV       0.046200
     32 H16          3.9500     0.5000     2.0700 hc         1 EJV       0.033700
     33 H17          3.9410     0.4930     0.3010 hc         1 EJV       0.033700
     34 H18          1.9210    -0.0060    -0.9390 ha         1 EJV       0.103500
     35 H19         -0.5210     0.0150     3.3570 ha         1 EJV       0.148500
@<TRIPOS>BOND
     1    16    14 1
     2    13     2 ar
     3    13    12 ar
     4    14    15 1
     5    14    12 1
     6     2    10 ar
     7    12     1 ar
     8    10     9 1
     9    10    11 ar
    10     1    11 ar
    11     9     8 1
    12     8     7 1
    13     7     6 1
    14     6     5 1
    15     5     4 1
    16     4     3 1
    17     1    17 1
    18     2    18 1
    19     3    19 1
    20     3    20 1
    21     3    21 1
    22     4    22 1
    23     4    23 1
    24     5    24 1
    25     5    25 1
    26     6    26 1
    27     6    27 1
    28     7    28 1
    29     7    29 1
    30     8    30 1
    31     8    31 1
    32     9    32 1
    33     9    33 1
    34    11    34 1
    35    13    35 1
@<TRIPOS>SUBSTRUCTURE
     1 EJV         1 TEMP              0 ****  ****    0 ROOT
