@<TRIPOS>MOLECULE
molecule
   30    32     1     0     0
SMALL
bcc


@<TRIPOS>ATOM
      1 C4           0.0000     0.0000     0.0000 ca         1 EJY      -0.170200
      2 C5           1.3870     0.0000     0.0000 ca         1 EJY      -0.073000
      3 C6           2.0860     0.0000     1.1890 ca         1 EJY      -0.128000
      4 C7           1.3960    -0.0000     2.3930 ca         1 EJY      -0.069200
      5 C10          0.6390     0.0000     4.4670 cc         1 EJY       0.436800
      6 C13          0.3670     2.3860     6.6980 ca         1 EJY      -0.108000
      7 C15         -1.7540     3.3040     7.3220 ca         1 EJY      -0.119000
      8 C17         -1.5940     1.0130     6.6430 ca         1 EJY      -0.108000
      9 C20         -0.6970     0.0000     1.1760 ca         1 EJY      -0.005000
     10 O1          -0.1170     0.0060    -2.3370 o          1 EJY      -0.207500
     11 N2          -0.7330     0.0060    -1.2860 no         1 EJY       0.298200
     12 O3          -1.9510     0.0120    -1.2930 o          1 EJY      -0.207500
     13 N8           1.7770    -0.0000     3.7200 na         1 EJY      -0.258300
     14 C11          0.5960     0.0010     5.9730 c3         1 EJY      -0.032400
     15 C12         -0.2330     1.1650     6.4510 ca         1 EJY      -0.091300
     16 C14         -0.3930     3.4540     7.1350 ca         1 EJY      -0.127000
     17 C16         -2.3550     2.0840     7.0700 ca         1 EJY      -0.127000
     18 N18         -0.4060     0.0010     3.6910 nd         1 EJY      -0.582100
     19 C19         -0.0100    -0.0000     2.3920 ca         1 EJY       0.086400
     20 H1           1.9260    -0.0000    -0.9400 ha         1 EJY       0.168000
     21 H2           3.1690    -0.0000     1.1830 ha         1 EJY       0.142000
     22 H3           1.4340     2.5050     6.5500 ha         1 EJY       0.132000
     23 H4          -2.3500     4.1420     7.6610 ha         1 EJY       0.132000
     24 H5          -2.0650     0.0570     6.4480 ha         1 EJY       0.132000
     25 H6          -1.7800     0.0000     1.1650 ha         1 EJY       0.178000
     26 H7           2.7070    -0.1300     4.0650 hn         1 EJY       0.308700
     27 H8           0.1540    -0.9240     6.3220 hc         1 EJY       0.067700
     28 H9           1.6030     0.0910     6.3630 hc         1 EJY       0.067700
     29 H10          0.0780     4.4100     7.3300 ha         1 EJY       0.132500
     30 H11         -3.4220     1.9650     7.2180 ha         1 EJY       0.132500
@<TRIPOS>BOND
     1     8    17 ar
     2     8    15 ar
     3    14    15 1
     4    14     5 1
     5    17     7 ar
     6    13     5 1
     7    13     4 1
     8    15     6 ar
     9     7    16 ar
    10     6    16 ar
    11     5    18 2
    12     3     4 ar
    13     3     2 ar
    14     4    19 ar
    15    18    19 1
    16     2     1 ar
    17    19     9 ar
    18     1     9 ar
    19     1    11 1
    20    11    12 1
    21    11    10 1
    22     2    20 1
    23     3    21 1
    24     6    22 1
    25     7    23 1
    26     8    24 1
    27     9    25 1
    28    13    26 1
    29    14    27 1
    30    14    28 1
    31    16    29 1
    32    17    30 1
@<TRIPOS>SUBSTRUCTURE
     1 EJY         1 TEMP              0 ****  ****    0 ROOT
