@<TRIPOS>MOLECULE
molecule
   16    16     1     0     0
SMALL
bcc


@<TRIPOS>ATOM
      1 O1           0.0000     0.0000     0.0000 o          1 EJZ      -0.772300
      2 C1           1.2140     0.0000     0.0000 c          1 EJZ       0.870800
      3 O4           1.8870     0.0000     1.1660 o          1 EJZ      -0.772300
      4 C2           1.9560    -0.0050    -1.2840 cc         1 EJZ       0.154400
      5 C3           2.3350     1.1650    -1.8610 cd         1 EJZ      -0.374300
      6 N3           2.0170     2.4630    -1.2240 no         1 EJZ       0.316100
      7 O6           1.4940     2.4890    -0.1240 o          1 EJZ      -0.198500
      8 O5           2.2800     3.5040    -1.7980 o          1 EJZ      -0.198500
      9 N1           2.2720    -1.1970    -1.8990 ns         1 EJZ      -0.427100
     10 C4           2.9440    -1.2220    -3.0620 c          1 EJZ       0.802500
     11 O2           3.2020    -2.2950    -3.5730 o          1 EJZ      -0.680500
     12 N2           3.3370    -0.0940    -3.6770 ns         1 EJZ      -0.565500
     13 C5           3.0680     1.1110    -3.1320 c          1 EJZ       0.715700
     14 O3           3.4270     2.1350    -3.6830 o          1 EJZ      -0.601500
     15 HN1          1.9950    -2.0590    -1.4720 hn         1 EJZ       0.375500
     16 HN2          3.8360    -0.1470    -4.5430 hn         1 EJZ       0.355500
@<TRIPOS>BOND
     1     1     2 1
     2     2     3 1
     3     2     4 1
     4     4     5 2
     5     4     9 1
     6     5     6 1
     7     5    13 1
     8     6     7 1
     9     6     8 1
    10     9    10 1
    11     9    15 1
    12    10    11 2
    13    10    12 1
    14    12    13 1
    15    12    16 1
    16    13    14 2
@<TRIPOS>SUBSTRUCTURE
     1 EJZ         1 TEMP              0 ****  ****    0 ROOT
