@<TRIPOS>MOLECULE
molecule
   29    31     1     0     0
SMALL
bcc


@<TRIPOS>ATOM
      1 Cl           0.0000     0.0000     0.0000 cl         1 EK0      -0.112400
      2 C1           1.7360     0.0000     0.0000 ca         1 EK0       0.031400
      3 C6           2.4260     0.0000     1.2010 ca         1 EK0      -0.126000
      4 C5           3.8050     0.0000     1.2060 ca         1 EK0      -0.099500
      5 C4           4.5050    -0.0010     0.0000 ca         1 EK0      -0.107500
      6 C3           3.8060    -0.0020    -1.2050 ca         1 EK0      -0.099500
      7 C2           2.4260    -0.0070    -1.2000 ca         1 EK0      -0.126000
      8 C7           5.9890    -0.0010     0.0010 cc         1 EK0       0.397800
      9 C9           6.8150    -0.7460     0.8560 cc         1 EK0      -0.291600
     10 C10          6.3980    -1.7000     1.9470 c3         1 EK0       0.003900
     11 C11          7.6060    -2.5700     2.3160 c3         1 EK0      -0.084400
     12 C12          8.8230    -1.6760     2.5660 c3         1 EK0      -0.077400
     13 C13          9.2950    -1.0720     1.2370 c3         1 EK0      -0.018100
     14 C8           8.1030    -0.4680     0.5380 cd         1 EK0      -0.072600
     15 N2           8.1010     0.4150    -0.4770 na         1 EK0      -0.034600
     16 N1           6.7660     0.6950    -0.8060 nd         1 EK0      -0.504800
     17 H5           1.8810     0.0010     2.1370 ha         1 EK0       0.144500
     18 H4           4.3440     0.0010     2.1460 ha         1 EK0       0.147000
     19 H3           4.3460    -0.0050    -2.1440 ha         1 EK0       0.147000
     20 H2           1.8820    -0.0070    -2.1360 ha         1 EK0       0.144500
     21 H7           5.5910    -2.3300     1.5900 hc         1 EK0       0.048700
     22 H6           6.0740    -1.1400     2.8160 hc         1 EK0       0.048700
     23 H9           7.8210    -3.2510     1.5010 hc         1 EK0       0.045200
     24 H8           7.3830    -3.1330     3.2140 hc         1 EK0       0.045200
     25 H11          9.6210    -2.2950     2.9570 hc         1 EK0       0.051700
     26 H10          8.5180    -0.8660     3.2160 hc         1 EK0       0.051700
     27 H12         10.0000    -0.2790     1.4560 hc         1 EK0       0.058200
     28 H13          9.6840    -1.8710     0.6180 hc         1 EK0       0.058200
     29 H1           8.9090     0.8010    -0.9220 hn         1 EK0       0.329700
@<TRIPOS>BOND
     1     1     2 1
     2     3     2 ar
     3     3     4 ar
     4     2     7 ar
     5     4     5 ar
     6     7     6 ar
     7     5     6 ar
     8     5     8 1
     9     8    16 2
    10     8     9 1
    11    16    15 1
    12     9    10 1
    13     9    14 2
    14    10    11 1
    15    15    14 1
    16    14    13 1
    17    12    11 1
    18    12    13 1
    19     3    17 1
    20     4    18 1
    21     6    19 1
    22     7    20 1
    23    10    21 1
    24    10    22 1
    25    11    23 1
    26    11    24 1
    27    12    25 1
    28    12    26 1
    29    13    27 1
    30    13    28 1
    31    15    29 1
@<TRIPOS>SUBSTRUCTURE
     1 EK0         1 TEMP              0 ****  ****    0 ROOT
