@<TRIPOS>MOLECULE
EK0
   29    31     1     0     0
SMALL
bcc


@<TRIPOS>ATOM
      1 CL         -0.0200    0.0580   -0.1430 cl        1 EK0     -0.098400
      2 C1          1.6800    0.0280   -0.0990 ca        1 EK0      0.018400
      3 C6          2.3390   -0.1170    1.1250 ca        1 EK0     -0.129000
      4 C5          3.7310   -0.1430    1.1580 ca        1 EK0     -0.105000
      5 C4          4.4750   -0.0280   -0.0250 ca        1 EK0     -0.104500
      6 C3          3.8000    0.1210   -1.2460 ca        1 EK0     -0.105000
      7 C2          2.4080    0.1480   -1.2860 ca        1 EK0     -0.129000
      8 C7          5.9270   -0.0650    0.0190 cc        1 EK0      0.361800
      9 C9          6.7580   -0.7920    0.9560 cc        1 EK0     -0.228600
     10 C10         6.4460   -1.6640    2.0940 c3        1 EK0     -0.000100
     11 C11         7.6590   -2.5070    2.4660 c3        1 EK0     -0.077400
     12 C12         8.9330   -1.6850    2.5350 c3        1 EK0     -0.071400
     13 C13         9.2980   -1.0600    1.1950 c3        1 EK0     -0.009100
     14 C8          8.0830   -0.5130    0.5610 cd        1 EK0     -0.110600
     15 N2          7.9930    0.3330   -0.5460 na        1 EK0     -0.000600
     16 N1          6.7330    0.6060   -0.8710 nd        1 EK0     -0.510800
     17 H5          1.7650   -0.2070    2.0600 ha        1 EK0      0.146500
     18 H4          4.2510   -0.2500    2.1220 ha        1 EK0      0.146000
     19 H3          4.3700    0.2190   -2.1830 ha        1 EK0      0.146000
     20 H2          1.8880    0.2650   -2.2480 ha        1 EK0      0.146500
     21 H7          5.5790   -2.3340    1.8510 hc        1 EK0      0.051200
     22 H6          6.1470   -1.0350    2.9780 hc        1 EK0      0.051200
     23 H9          7.7870   -3.3240    1.7090 hc        1 EK0      0.045200
     24 H8          7.4770   -2.9910    3.4610 hc        1 EK0      0.045200
     25 H11         8.8050   -0.8730    3.2980 hc        1 EK0      0.046200
     26 H10         9.7800   -2.3370    2.8720 hc        1 EK0      0.046200
     27 H12        10.0690   -0.2600    1.3500 hc        1 EK0      0.053700
     28 H13         9.7500   -1.8400    0.5230 hc        1 EK0      0.053700
     29 H1          8.7420    0.7380   -1.0560 hn        1 EK0      0.321700
@<TRIPOS>BOND
     1    1    2 1   
     2    2    3 ar  
     3    2    7 ar  
     4    3    4 ar  
     5    3   17 1   
     6    4    5 ar  
     7    4   18 1   
     8    5    6 ar  
     9    5    8 1   
    10    6    7 ar  
    11    6   19 1   
    12    7   20 1   
    13    8    9 1   
    14    8   16 2   
    15    9   10 1   
    16    9   14 2   
    17   10   11 1   
    18   10   21 1   
    19   10   22 1   
    20   11   12 1   
    21   11   23 1   
    22   11   24 1   
    23   12   13 1   
    24   12   25 1   
    25   12   26 1   
    26   13   14 1   
    27   13   27 1   
    28   13   28 1   
    29   14   15 1   
    30   15   16 1   
    31   15   29 1   
@<TRIPOS>SUBSTRUCTURE
     1 EK0         1 TEMP              0 ****  ****    0 ROOT
