@<TRIPOS>MOLECULE
molecule
   68    71     1     0     0
SMALL
bcc


@<TRIPOS>ATOM
      1 N81          0.0000     0.0000     0.0000 nb         1 EK1      -0.732000
      2 C82          1.3250     0.0000     0.0000 cp         1 EK1       0.748500
      3 N83          2.0200     0.0000     1.1300 nb         1 EK1      -0.732000
      4 C84          1.4050    -0.0010     2.3000 ca         1 EK1       0.461700
      5 C85          0.0190    -0.0000     2.3360 ca         1 EK1      -0.397600
      6 C86         -0.6760    -0.0010     1.1360 ca         1 EK1       0.461700
      7 C99          3.4440     0.0010    -1.3130 ca         1 EK1      -0.095500
      8 C98          2.0500     0.0010    -1.2940 cp         1 EK1      -0.138500
      9 C19          1.3350     0.0000    -2.4930 ca         1 EK1      -0.095500
     10 C17          2.0070     0.0000    -3.6950 ca         1 EK1      -0.105500
     11 C87          3.4030     0.0010    -3.7140 ca         1 EK1      -0.117600
     12 C22          4.1170     0.0030    -2.5140 ca         1 EK1      -0.105500
     13 C97          4.1250     0.0010    -5.0050 c          1 EK1       0.664700
     14 O99          3.5030    -0.0000    -6.0490 o          1 EK1      -0.617100
     15 N99          5.4730     0.0020    -5.0230 ns         1 EK1      -0.565900
     16 C15          6.1880     0.0020    -6.3020 c3         1 EK1       0.173300
     17 C8           7.6730     0.0030    -6.0470 ca         1 EK1      -0.158300
     18 C9           8.3230    -1.1800    -5.7290 ca         1 EK1       0.128100
     19 O3           7.6220    -2.3410    -5.6470 os         1 EK1      -0.335900
     20 C12          8.3580    -3.5210    -5.3140 c3         1 EK1       0.140400
     21 C13          7.4070    -4.7190    -5.2700 c3         1 EK1      -0.084400
     22 C14          8.1940    -5.9820    -4.9140 c3         1 EK1      -0.091100
     23 C10          9.6910    -1.1750    -5.4940 ca         1 EK1      -0.227000
     24 C11         10.4010     0.0070    -5.5790 ca         1 EK1      -0.082000
     25 C6           9.7500     1.1840    -5.8950 ca         1 EK1      -0.092300
     26 C5          10.5270     2.4720    -5.9860 c3         1 EK1      -0.022100
     27 C2          11.1530     2.5930    -7.3780 c3         1 EK1      -0.163700
     28 C3          10.0470     2.7340    -8.4240 c3         1 EK1      -0.023100
     29 C4          10.6560     2.7290    -9.8030 ca         1 EK1      -0.045300
     30 C51         10.8250     1.5350   -10.4790 ca         1 EK1      -0.103500
     31 C52         11.3840     1.5310   -11.7440 ca         1 EK1      -0.136000
     32 C53         11.7730     2.7200   -12.3320 ca         1 EK1      -0.149000
     33 C54         11.6030     3.9130   -11.6550 ca         1 EK1      -0.136000
     34 C55         11.0390     3.9180   -10.3930 ca         1 EK1      -0.103500
     35 C7           8.3880     1.1820    -6.1350 ca         1 EK1      -0.081000
     36 C1          12.0450     3.8070    -7.4240 c          1 EK1       0.890600
     37 O1          11.7350     4.8070    -6.8210 o          1 EK1      -0.843300
     38 O2          13.1840     3.7760    -8.1340 o          1 EK1      -0.843300
     39 H1           1.9780    -0.0010     3.2200 h4         1 EK1       0.027600
     40 H2          -0.5100    -0.0010     3.2820 ha         1 EK1       0.142000
     41 H3          -1.7590    -0.0010     1.1300 h4         1 EK1       0.027600
     42 H5           0.2520    -0.0010    -2.4780 ha         1 EK1       0.154000
     43 H6           1.4530    -0.0030    -4.6250 ha         1 EK1       0.148500
     44 H7           5.2000     0.0520    -2.5280 ha         1 EK1       0.148500
     45 H8           5.9170     0.8860    -6.8670 h1         1 EK1       0.060700
     46 H9           8.8250    -3.3940    -4.3450 h1         1 EK1       0.033700
     47 H10          6.6440    -4.5470    -4.5210 hc         1 EK1       0.053200
     48 H11          7.5210    -6.8300    -4.8830 hc         1 EK1       0.034367
     49 H12          8.6610    -5.8550    -3.9450 hc         1 EK1       0.034367
     50 H13          8.9580    -6.1550    -5.6630 hc         1 EK1       0.034367
     51 H14         10.2020    -2.0980    -5.2450 ha         1 EK1       0.126000
     52 H15         11.4690     0.0110    -5.3960 ha         1 EK1       0.141000
     53 H16          9.8600     3.3090    -5.8160 hc         1 EK1       0.057200
     54 H17         11.3090     2.4760    -5.2370 hc         1 EK1       0.057200
     55 H18         11.7390     1.7060    -7.5880 hc         1 EK1       0.052700
     56 H19          9.5170     3.6650    -8.2670 hc         1 EK1       0.034700
     57 H20          9.3550     1.9050    -8.3320 hc         1 EK1       0.034700
     58 H21         10.5200     0.6040   -10.0190 ha         1 EK1       0.132500
     59 H22         11.5170     0.5960   -12.2750 ha         1 EK1       0.109500
     60 H23         12.2130     2.7170   -13.3220 ha         1 EK1       0.105000
     61 H24         11.9050     4.8450   -12.1160 ha         1 EK1       0.109500
     62 H25         10.9060     4.8540    -9.8640 ha         1 EK1       0.132500
     63 H26          7.8810     2.1060    -6.3830 ha         1 EK1       0.144000
     64 H28          5.9850     0.0400    -4.1640 hn         1 EK1       0.318500
     65 H29          5.9180    -0.8830    -6.8660 h1         1 EK1       0.060700
     66 H30          9.1220    -3.6930    -6.0630 h1         1 EK1       0.033700
     67 H31          6.9410    -4.8460    -6.2390 hc         1 EK1       0.053200
     68 H4           3.9980     0.0010    -0.3820 ha         1 EK1       0.154000
@<TRIPOS>BOND
     1     4     5 ar
     2     4     3 ar
     3     5     6 ar
     4     3     2 ar
     5     6     1 ar
     6     2     1 ar
     7     2     8 1
     8     8     7 ar
     9     8     9 ar
    10     7    12 ar
    11     9    10 ar
    12    12    11 ar
    13    21    22 1
    14    21    20 1
    15    10    11 ar
    16    11    13 1
    17    14    13 2
    18    13    15 1
    19    20    19 1
    20    19    18 1
    21    15    16 1
    22    16    17 1
    23    18    17 ar
    24    18    23 ar
    25    17    35 ar
    26    23    24 ar
    27    35    25 ar
    28    24    25 ar
    29    25    26 1
    30    26    27 1
    31    28    27 1
    32    28    29 1
    33    34    33 ar
    34    34    29 ar
    35    27    36 1
    36    33    32 ar
    37    29    30 ar
    38    36    37 1
    39    36    38 1
    40    32    31 ar
    41    30    31 ar
    42     4    39 1
    43     5    40 1
    44     6    41 1
    45     7    68 1
    46     9    42 1
    47    10    43 1
    48    12    44 1
    49    16    45 1
    50    20    46 1
    51    21    47 1
    52    22    48 1
    53    22    49 1
    54    22    50 1
    55    23    51 1
    56    24    52 1
    57    26    53 1
    58    26    54 1
    59    27    55 1
    60    28    56 1
    61    28    57 1
    62    30    58 1
    63    31    59 1
    64    32    60 1
    65    33    61 1
    66    34    62 1
    67    35    63 1
    68    15    64 1
    69    16    65 1
    70    20    66 1
    71    21    67 1
@<TRIPOS>SUBSTRUCTURE
     1 EK1         1 TEMP              0 ****  ****    0 ROOT
