@<TRIPOS>MOLECULE
molecule
   42    45     1     0     0
SMALL
bcc


@<TRIPOS>ATOM
      1 O1           0.0000     0.0000     0.0000 o          1 EK2      -0.592100
      2 C14          1.2170     0.0000     0.0000 c          1 EK2       0.708700
      3 N4           1.8900     0.0000     1.1680 n          1 EK2      -0.497800
      4 C18          3.3550     0.1490     1.1970 c3         1 EK2       0.058000
      5 C17          3.7070     1.2580     2.1960 c3         1 EK2       0.122400
      6 O2           3.0710     0.9850     3.4460 os         1 EK2      -0.417600
      7 C16          1.6430     0.9750     3.3860 c3         1 EK2       0.122400
      8 C15          1.1830    -0.1420     2.4500 c3         1 EK2       0.058000
      9 C12          1.9510    -0.0070    -1.2710 cc         1 EK2      -0.193900
     10 C11          1.4660     0.4110    -2.4770 cd         1 EK2      -0.102000
     11 N3           3.2490    -0.4270    -1.4510 na         1 EK2      -0.149100
     12 C13          3.5820    -0.2860    -2.7490 cc         1 EK2      -0.097300
     13 C10          2.4980     0.2340    -3.4230 cd         1 EK2      -0.147000
     14 C9           2.4300     0.5490    -4.8660 cd         1 EK2       0.042700
     15 N2           1.4030     0.2540    -5.7120 na         1 EK2      -0.031600
     16 N1           1.7410     0.7270    -6.9860 nd         1 EK2      -0.507800
     17 C8           2.9190     1.2890    -6.9340 cc         1 EK2       0.356200
     18 C7           3.3950     1.2090    -5.6130 cc         1 EK2      -0.280300
     19 C3           4.6910     1.7270    -5.1130 ca         1 EK2       0.031000
     20 C2           5.8740     1.4200    -5.7830 ca         1 EK2      -0.120500
     21 C4           4.7300     2.5300    -3.9730 ca         1 EK2      -0.120500
     22 C5           5.9390     3.0110    -3.5120 ca         1 EK2       0.033900
     23 Cl2          5.9900     4.0090    -2.0920 cl         1 EK2      -0.102900
     24 C6           7.1120     2.6990    -4.1780 ca         1 EK2      -0.128000
     25 C1           7.0770     1.9070    -5.3140 ca         1 EK2       0.033900
     26 Cl1          8.5520     1.5250    -6.1470 cl         1 EK2      -0.102900
     27 H16          3.8090    -0.7820     1.5130 h1         1 EK2       0.065200
     28 H15          3.7130     0.4200     0.2110 h1         1 EK2       0.065200
     29 H14          3.3590     2.2110     1.8150 h1         1 EK2       0.059200
     30 H13          4.7810     1.2890     2.3360 h1         1 EK2       0.059200
     31 H11          1.2910     1.9280     3.0100 h1         1 EK2       0.059200
     32 H12          1.2420     0.8020     4.3780 h1         1 EK2       0.059200
     33 H10          1.4180    -1.1040     2.8890 h1         1 EK2       0.065200
     34 H9           0.1150    -0.0610     2.2860 h1         1 EK2       0.065200
     35 H7           0.4740     0.8020    -2.6720 ha         1 EK2       0.172000
     36 H2           3.8480    -0.7840    -0.7330 hn         1 EK2       0.313700
     37 H8           4.5400    -0.5370    -3.1880 h4         1 EK2       0.184000
     38 H1           0.5560    -0.2180    -5.4650 hn         1 EK2       0.337700
     39 H6           3.4390     1.7450    -7.7670 h4         1 EK2       0.053100
     40 H3           5.8490     0.8010    -6.6720 ha         1 EK2       0.155500
     41 H4           3.8070     2.8420    -3.4990 ha         1 EK2       0.155500
     42 H5           8.0590     3.0790    -3.8140 ha         1 EK2       0.156000
@<TRIPOS>BOND
     1     6     7 1
     2     6     5 1
     3     7     8 1
     4     5     4 1
     5     4     3 1
     6     8     3 1
     7     3     2 1
     8     2     1 2
     9     2     9 1
    10     9    10 2
    11     9    11 1
    12    10    13 1
    13    15    16 1
    14    15    14 1
    15    11    12 1
    16    13    12 2
    17    13    14 1
    18    16    17 2
    19    14    18 2
    20    17    18 1
    21    18    19 1
    22    19    20 ar
    23    19    21 ar
    24    20    25 ar
    25    21    22 ar
    26    25    24 ar
    27    25    26 1
    28    22    24 ar
    29    22    23 1
    30     4    27 1
    31     4    28 1
    32     5    29 1
    33     5    30 1
    34     7    31 1
    35     7    32 1
    36     8    33 1
    37     8    34 1
    38    10    35 1
    39    11    36 1
    40    12    37 1
    41    15    38 1
    42    17    39 1
    43    20    40 1
    44    21    41 1
    45    24    42 1
@<TRIPOS>SUBSTRUCTURE
     1 EK2         1 TEMP              0 ****  ****    0 ROOT
