@<TRIPOS>MOLECULE
molecule
   46    49     1     0     0
SMALL
bcc


@<TRIPOS>ATOM
      1 F            0.0000     0.0000     0.0000 f          1 EK3      -0.140900
      2 C1           1.3500     0.0000     0.0000 ca         1 EK3       0.139900
      3 C6           2.0410     0.0000     1.2010 ca         1 EK3      -0.174500
      4 C5           3.4210    -0.0010     1.2060 ca         1 EK3      -0.076000
      5 C4           4.1200    -0.0000     0.0010 ca         1 EK3      -0.135500
      6 C3           3.4210    -0.0010    -1.2050 ca         1 EK3      -0.076000
      7 C2           2.0410    -0.0060    -1.2010 ca         1 EK3      -0.174500
      8 C7           5.6030    -0.0000     0.0010 cc         1 EK3       0.415800
      9 C9           6.4390    -0.6570    -0.9380 cc         1 EK3      -0.257300
     10 C8           7.7300    -0.4080    -0.5810 cd         1 EK3      -0.094300
     11 N2           7.7120     0.3660     0.5230 na         1 EK3      -0.040600
     12 N1           6.3770     0.6140     0.8670 nd         1 EK3      -0.503800
     13 C10          5.9900    -1.4690    -2.0940 ca         1 EK3       0.071000
     14 C14          5.0360    -2.4830    -1.9350 ca         1 EK3      -0.307300
     15 C13          4.6440    -3.2150    -3.0330 ca         1 EK3       0.467200
     16 N3           5.1540    -2.9750    -4.2280 nb         1 EK3      -0.769000
     17 C12          6.0570    -2.0260    -4.4260 ca         1 EK3       0.704200
     18 C11          6.5020    -1.2400    -3.3720 ca         1 EK3      -0.326300
     19 N4           6.5630    -1.8140    -5.7040 nu         1 EK3      -0.917900
     20 C15          7.5620    -0.7670    -5.9310 c3         1 EK3       0.245500
     21 C20          8.9570    -1.3210    -5.6320 c3         1 EK3      -0.095400
     22 C19         10.0010    -0.2280    -5.8700 c3         1 EK3      -0.078400
     23 C18          9.9360     0.2310    -7.3280 c3         1 EK3      -0.082400
     24 C17          8.5430     0.7830    -7.6280 c3         1 EK3      -0.078400
     25 C16          7.4990    -0.3100    -7.3900 c3         1 EK3      -0.095400
     26 H5           1.4970    -0.0000     2.1380 ha         1 EK3       0.147500
     27 H4           3.9600    -0.0010     2.1450 ha         1 EK3       0.150500
     28 H3           3.9600    -0.0030    -2.1450 ha         1 EK3       0.150500
     29 H2           1.4980    -0.0070    -2.1380 ha         1 EK3       0.147500
     30 H6           8.6150    -0.7680    -1.0930 h4         1 EK3       0.176000
     31 H1           8.5160     0.7090     1.0110 hn         1 EK3       0.333700
     32 H9           4.6120    -2.6870    -0.9590 ha         1 EK3       0.145000
     33 H8           3.9070    -4.0000    -2.9160 h4         1 EK3       0.022100
     34 H7           7.2410    -0.4650    -3.5370 ha         1 EK3       0.140000
     35 H10          6.2160    -2.3510    -6.4740 hn         1 EK3       0.449800
     36 H11          7.3630     0.0760    -5.2810 h1         1 EK3       0.059700
     37 H20          9.1590    -2.1600    -6.2860 hc         1 EK3       0.049700
     38 H21          9.0020    -1.6430    -4.5980 hc         1 EK3       0.049700
     39 H19          9.7960     0.6130    -5.2180 hc         1 EK3       0.043200
     40 H18         10.9880    -0.6220    -5.6600 hc         1 EK3       0.043200
     41 H17         10.6740     1.0060    -7.4940 hc         1 EK3       0.043700
     42 H16         10.1370    -0.6120    -7.9790 hc         1 EK3       0.043700
     43 H15          8.4980     1.1040    -8.6610 hc         1 EK3       0.043200
     44 H14          8.3400     1.6230    -6.9740 hc         1 EK3       0.043200
     45 H13          6.5120     0.0840    -7.6010 hc         1 EK3       0.049700
     46 H12          7.7040    -1.1510    -8.0400 hc         1 EK3       0.049700
@<TRIPOS>BOND
     1    23    22 1
     2    23    24 1
     3    22    21 1
     4    21    20 1
     5    24    25 1
     6     1     2 1
     7     3     2 ar
     8     3     4 ar
     9    20    25 1
    10    20    19 1
    11     2     7 ar
    12     4     5 ar
    13    19    17 1
    14     7     6 ar
    15    17    16 ar
    16    17    18 ar
    17     5     6 ar
    18     5     8 1
    19    16    15 ar
    20    18    13 ar
    21    15    14 ar
    22     8     9 1
    23     8    12 2
    24    13    14 ar
    25    13     9 1
    26     9    10 2
    27    12    11 1
    28    10    11 1
    29     3    26 1
    30     4    27 1
    31     6    28 1
    32     7    29 1
    33    10    30 1
    34    11    31 1
    35    14    32 1
    36    15    33 1
    37    18    34 1
    38    19    35 1
    39    20    36 1
    40    21    37 1
    41    21    38 1
    42    22    39 1
    43    22    40 1
    44    23    41 1
    45    23    42 1
    46    24    43 1
    47    24    44 1
    48    25    45 1
    49    25    46 1
@<TRIPOS>SUBSTRUCTURE
     1 EK3         1 TEMP              0 ****  ****    0 ROOT
