@<TRIPOS>MOLECULE
EK3
   46    49     1     0     0
SMALL
bcc


@<TRIPOS>ATOM
      1 F            0.0000     0.0000     0.0000 f          1 EK3      -0.129900
      2 C1           1.3500     0.0000     0.0000 ca         1 EK3       0.107900
      3 C6           2.0410     0.0000     1.2010 ca         1 EK3      -0.139000
      4 C5           3.4210    -0.0010     1.2060 ca         1 EK3      -0.056000
      5 C4           4.1200    -0.0000     0.0010 ca         1 EK3      -0.131500
      6 C3           3.4210    -0.0010    -1.2050 ca         1 EK3      -0.056000
      7 C2           2.0410    -0.0060    -1.2010 ca         1 EK3      -0.139000
      8 C7           5.6030    -0.0000     0.0010 cc         1 EK3       0.447800
      9 C9           6.4390    -0.6570    -0.9380 cc         1 EK3      -0.257300
     10 C8           7.7300    -0.4080    -0.5810 cd         1 EK3      -0.250300
     11 N2           7.7120     0.3660     0.5230 na         1 EK3       0.457400
     12 N1           6.3770     0.6140     0.8670 nd         1 EK3      -0.656800
     13 C10          5.9900    -1.4690    -2.0940 ca         1 EK3       0.095000
     14 C14          5.0360    -2.4830    -1.9350 ca         1 EK3      -0.293300
     15 C13          4.6440    -3.2150    -3.0330 ca         1 EK3       0.457200
     16 N3           5.1540    -2.9750    -4.2280 nb         1 EK3      -0.661000
     17 C12          6.0570    -2.0260    -4.4260 ca         1 EK3       0.527200
     18 C11          6.5020    -1.2400    -3.3720 ca         1 EK3      -0.323300
     19 N4           6.5630    -1.8140    -5.7040 nu         1 EK3      -0.512900
     20 C15          7.5620    -0.7670    -5.9310 c3         1 EK3       0.131500
     21 C20          8.9570    -1.3210    -5.6320 c3         1 EK3      -0.041900
     22 C19         10.0010    -0.2280    -5.8700 c3         1 EK3      -0.019400
     23 C18          9.9360     0.2310    -7.3280 c3         1 EK3      -0.026400
     24 C17          8.5430     0.7830    -7.6280 c3         1 EK3      -0.019400
     25 C16          7.4990    -0.3100    -7.3900 c3         1 EK3      -0.041900
     26 H5           1.4970    -0.0000     2.1380 ha         1 EK3       0.119500
     27 H4           3.9600    -0.0010     2.1450 ha         1 EK3       0.121000
     28 H3           3.9600    -0.0030    -2.1450 ha         1 EK3       0.121000
     29 H2           1.4980    -0.0070    -2.1380 ha         1 EK3       0.119500
     30 H6           8.6150    -0.7680    -1.0930 h4         1 EK3       0.149000
     31 H1           8.5160     0.7090     1.0110 hn         1 EK3       0.148700
     32 H9           4.6120    -2.6870    -0.9590 ha         1 EK3       0.125000
     33 H8           3.9070    -4.0000    -2.9160 h4         1 EK3      -0.023900
     34 H7           7.2410    -0.4650    -3.5370 ha         1 EK3       0.130000
     35 H10          6.2160    -2.3510    -6.4740 hn         1 EK3       0.300800
     36 H11          7.3630     0.0760    -5.2810 h1         1 EK3       0.042700
     37 H20          9.1590    -2.1600    -6.2860 hc         1 EK3       0.022200
     38 H21          9.0020    -1.6430    -4.5980 hc         1 EK3       0.022200
     39 H19          9.7960     0.6130    -5.2180 hc         1 EK3       0.014450
     40 H18         10.9880    -0.6220    -5.6600 hc         1 EK3       0.014450
     41 H17         10.6740     1.0060    -7.4940 hc         1 EK3       0.015700
     42 H16         10.1370    -0.6120    -7.9790 hc         1 EK3       0.015700
     43 H15          8.4980     1.1040    -8.6610 hc         1 EK3       0.014450
     44 H14          8.3400     1.6230    -6.9740 hc         1 EK3       0.014450
     45 H13          6.5120     0.0840    -7.6010 hc         1 EK3       0.022200
     46 H12          7.7040    -1.1510    -8.0400 hc         1 EK3       0.022200
@<TRIPOS>BOND
     1     1     2 1   
     2     2     3 ar  
     3     2     7 ar  
     4     3     4 ar  
     5     3    26 1   
     6     4     5 ar  
     7     4    27 1   
     8     5     6 ar  
     9     5     8 1   
    10     6     7 ar  
    11     6    28 1   
    12     7    29 1   
    13     8     9 1   
    14     8    12 2   
    15     9    10 2   
    16     9    13 1   
    17    10    11 1   
    18    10    30 1   
    19    11    12 1   
    20    11    31 1   
    21    13    14 ar  
    22    13    18 ar  
    23    14    15 ar  
    24    14    32 1   
    25    15    16 ar  
    26    15    33 1   
    27    16    17 ar  
    28    17    18 ar  
    29    17    19 1   
    30    18    34 1   
    31    19    20 1   
    32    19    35 1   
    33    20    21 1   
    34    20    25 1   
    35    20    36 1   
    36    21    22 1   
    37    21    37 1   
    38    21    38 1   
    39    22    23 1   
    40    22    39 1   
    41    22    40 1   
    42    23    24 1   
    43    23    41 1   
    44    23    42 1   
    45    24    25 1   
    46    24    43 1   
    47    24    44 1   
    48    25    45 1   
    49    25    46 1   
@<TRIPOS>SUBSTRUCTURE
     1 EK3         1 TEMP              0 ****  ****    0 ROOT
