@<TRIPOS>MOLECULE
EK4
   51    54     1     0     0
SMALL
bcc


@<TRIPOS>ATOM
      1 O1           0.0000     0.0000     0.0000 o          1 EK4      -0.639100
      2 C15          1.2170     0.0000     0.0000 c          1 EK4       0.634700
      3 N4           1.8900     0.0000     1.1680 ns         1 EK4      -0.199900
      4 C16          1.1570     0.0000     2.4360 c3         1 EK4       0.081000
      5 C18          2.0210    -0.6000     3.5150 ca         1 EK4      -0.106300
      6 C23          1.4630    -1.4430     4.4580 ca         1 EK4      -0.086500
      7 C22          2.2550    -1.9930     5.4480 ca         1 EK4      -0.098500
      8 C21          3.6050    -1.7010     5.4960 ca         1 EK4      -0.096000
      9 C20          4.1630    -0.8580     4.5530 ca         1 EK4      -0.098500
     10 C19          3.3720    -0.3110     3.5600 ca         1 EK4      -0.086500
     11 C17          0.7930     1.4380     2.8150 c3         1 EK4       0.206400
     12 O2           1.9880     2.1810     3.0680 oh         1 EK4      -0.601800
     13 C13          1.9510    -0.0060    -1.2700 cc         1 EK4      -0.409900
     14 C12          1.3940    -0.0080    -2.5170 cd         1 EK4      -0.041000
     15 N3           3.3200    -0.0070    -1.4100 na         1 EK4       0.438900
     16 C14          3.6290    -0.0130    -2.7230 cc         1 EK4      -0.318300
     17 C11          2.4550    -0.0140    -3.4450 cd         1 EK4      -0.121000
     18 C10          2.3310    -0.0180    -4.9190 cd         1 EK4      -0.127300
     19 N2           3.0200     0.7690    -5.7920 na         1 EK4       0.455400
     20 N1           2.6040     0.4470    -7.0890 nd         1 EK4      -0.668800
     21 C9           1.7010    -0.4950    -7.0270 cc         1 EK4       0.416200
     22 C8           1.4960    -0.8290    -5.6760 cc         1 EK4      -0.276300
     23 C4           0.5560    -1.8510    -5.1560 ca         1 EK4       0.021000
     24 C3          -0.7980    -1.7890    -5.4850 ca         1 EK4      -0.041000
     25 C5           1.0230    -2.8810    -4.3400 ca         1 EK4      -0.063000
     26 C6           0.1430    -3.8280    -3.8590 ca         1 EK4      -0.106000
     27 C7          -1.1990    -3.7590    -4.1850 ca         1 EK4      -0.054000
     28 C2          -1.6680    -2.7430    -4.9980 ca         1 EK4      -0.208300
     29 C1          -3.1320    -2.6740    -5.3480 c3         1 EK4       0.640200
     30 F1          -3.6630    -1.4610    -4.8950 f          1 EK4      -0.209300
     31 F2          -3.2830    -2.7600    -6.7360 f          1 EK4      -0.209300
     32 F3          -3.8070    -3.7370    -4.7380 f          1 EK4      -0.209300
     33 H11          2.8900    -0.0240     1.1680 hn         1 EK4       0.173500
     34 H3           0.2520    -0.5850     2.3310 h1         1 EK4       0.065700
     35 H19          0.4050    -1.6720     4.4210 ha         1 EK4       0.108000
     36 H18          1.8180    -2.6530     6.1870 ha         1 EK4       0.103500
     37 H17          4.2250    -2.1310     6.2730 ha         1 EK4       0.103000
     38 H16          5.2220    -0.6300     4.5890 ha         1 EK4       0.103500
     39 H15          3.8090     0.3490     2.8210 ha         1 EK4       0.108000
     40 H12          0.1770     1.4310     3.7050 h1         1 EK4       0.004200
     41 H13          0.2470     1.8980     2.0010 h1         1 EK4       0.004200
     42 H14          1.7650     3.0770     3.2590 ho         1 EK4       0.394000
     43 H9           0.3360    -0.0060    -2.7490 ha         1 EK4       0.152000
     44 H2           3.9810    -0.0060    -0.6590 hn         1 EK4       0.108700
     45 H10          4.6290    -0.0160    -3.1390 h4         1 EK4       0.146000
     46 H1           3.7030     1.4580    -5.5480 hn         1 EK4       0.147700
     47 H8           1.1980    -0.9470    -7.8730 h4         1 EK4       0.007100
     48 H4          -1.1650    -0.9930    -6.1220 ha         1 EK4       0.119000
     49 H5           2.0740    -2.9360    -4.0840 ha         1 EK4       0.110000
     50 H6           0.5040    -4.6270    -3.2230 ha         1 EK4       0.107000
     51 H7          -1.8860    -4.5050    -3.8040 ha         1 EK4       0.119000
@<TRIPOS>BOND
     1     1     2 2   
     2     2     3 1   
     3     2    13 1   
     4     3     4 1   
     5     3    33 1   
     6     4     5 1   
     7     4    11 1   
     8     4    34 1   
     9     5     6 ar  
    10     5    10 ar  
    11     6     7 ar  
    12     6    35 1   
    13     7     8 ar  
    14     7    36 1   
    15     8     9 ar  
    16     8    37 1   
    17     9    10 ar  
    18     9    38 1   
    19    10    39 1   
    20    11    12 1   
    21    11    40 1   
    22    11    41 1   
    23    12    42 1   
    24    13    14 2   
    25    13    15 1   
    26    14    17 1   
    27    14    43 1   
    28    15    16 1   
    29    15    44 1   
    30    16    17 2   
    31    16    45 1   
    32    17    18 1   
    33    18    19 1   
    34    18    22 2   
    35    19    20 1   
    36    19    46 1   
    37    20    21 2   
    38    21    22 1   
    39    21    47 1   
    40    22    23 1   
    41    23    24 ar  
    42    23    25 ar  
    43    24    28 ar  
    44    24    48 1   
    45    25    26 ar  
    46    25    49 1   
    47    26    27 ar  
    48    26    50 1   
    49    27    28 ar  
    50    27    51 1   
    51    28    29 1   
    52    29    30 1   
    53    29    31 1   
    54    29    32 1   
@<TRIPOS>SUBSTRUCTURE
     1 EK4         1 TEMP              0 ****  ****    0 ROOT
