@<TRIPOS>MOLECULE
molecule
   51    54     1     0     0
SMALL
bcc


@<TRIPOS>ATOM
      1 O1           0.0000     0.0000     0.0000 o          1 EK4      -0.598100
      2 C15          1.2170     0.0000     0.0000 c          1 EK4       0.701700
      3 N4           1.8900     0.0000     1.1680 ns         1 EK4      -0.576900
      4 C16          1.1570     0.0000     2.4360 c3         1 EK4       0.175000
      5 C18          2.0210    -0.6000     3.5150 ca         1 EK4      -0.097300
      6 C23          1.4630    -1.4430     4.4580 ca         1 EK4      -0.111500
      7 C22          2.2550    -1.9930     5.4480 ca         1 EK4      -0.127500
      8 C21          3.6050    -1.7010     5.4960 ca         1 EK4      -0.123000
      9 C20          4.1630    -0.8580     4.5530 ca         1 EK4      -0.127500
     10 C19          3.3720    -0.3110     3.5600 ca         1 EK4      -0.111500
     11 C17          0.7930     1.4380     2.8150 c3         1 EK4       0.126400
     12 O2           1.9880     2.1810     3.0680 oh         1 EK4      -0.616800
     13 C13          1.9510    -0.0060    -1.2700 cc         1 EK4      -0.197900
     14 C12          1.3940    -0.0080    -2.5170 cd         1 EK4      -0.077000
     15 N3           3.3200    -0.0070    -1.4100 na         1 EK4      -0.141100
     16 C14          3.6290    -0.0130    -2.7230 cc         1 EK4      -0.123300
     17 C11          2.4550    -0.0140    -3.4450 cd         1 EK4      -0.138000
     18 C10          2.3310    -0.0180    -4.9190 cd         1 EK4       0.031700
     19 N2           3.0200     0.7690    -5.7920 na         1 EK4      -0.039600
     20 N1           2.6040     0.4470    -7.0890 nd         1 EK4      -0.511800
     21 C9           1.7010    -0.4950    -7.0270 cc         1 EK4       0.354200
     22 C8           1.4960    -0.8290    -5.6760 cc         1 EK4      -0.264300
     23 C4           0.5560    -1.8510    -5.1560 ca         1 EK4       0.004000
     24 C3          -0.7980    -1.7890    -5.4850 ca         1 EK4      -0.075000
     25 C5           1.0230    -2.8810    -4.3400 ca         1 EK4      -0.088000
     26 C6           0.1430    -3.8280    -3.8590 ca         1 EK4      -0.133000
     27 C7          -1.1990    -3.7590    -4.1850 ca         1 EK4      -0.088000
     28 C2          -1.6680    -2.7430    -4.9980 ca         1 EK4      -0.180300
     29 C1          -3.1320    -2.6740    -5.3480 c3         1 EK4       0.674200
     30 F1          -3.6630    -1.4610    -4.8950 f          1 EK4      -0.224967
     31 F2          -3.2830    -2.7600    -6.7360 f          1 EK4      -0.224967
     32 F3          -3.8070    -3.7370    -4.7380 f          1 EK4      -0.224967
     33 H11          2.8900    -0.0240     1.1680 hn         1 EK4       0.311500
     34 H3           0.2520    -0.5850     2.3310 h1         1 EK4       0.093700
     35 H19          0.4050    -1.6720     4.4210 ha         1 EK4       0.132000
     36 H18          1.8180    -2.6530     6.1870 ha         1 EK4       0.131500
     37 H17          4.2250    -2.1310     6.2730 ha         1 EK4       0.131000
     38 H16          5.2220    -0.6300     4.5890 ha         1 EK4       0.131500
     39 H15          3.8090     0.3490     2.8210 ha         1 EK4       0.132000
     40 H12          0.1770     1.4310     3.7050 h1         1 EK4       0.038700
     41 H13          0.2470     1.8980     2.0010 h1         1 EK4       0.038700
     42 H14          1.7650     3.0770     3.2590 ho         1 EK4       0.405000
     43 H9           0.3360    -0.0060    -2.7490 ha         1 EK4       0.183000
     44 H2           3.9810    -0.0060    -0.6590 hn         1 EK4       0.298700
     45 H10          4.6290    -0.0160    -3.1390 h4         1 EK4       0.172000
     46 H1           3.7030     1.4580    -5.5480 hn         1 EK4       0.330700
     47 H8           1.1980    -0.9470    -7.8730 h4         1 EK4       0.054100
     48 H4          -1.1650    -0.9930    -6.1220 ha         1 EK4       0.147000
     49 H5           2.0740    -2.9360    -4.0840 ha         1 EK4       0.140000
     50 H6           0.5040    -4.6270    -3.2230 ha         1 EK4       0.136000
     51 H7          -1.8860    -4.5050    -3.8040 ha         1 EK4       0.147000
@<TRIPOS>BOND
     1    26    25 ar
     2    26    27 ar
     3    25    23 ar
     4    27    28 ar
     5    12    11 1
     6    23    22 1
     7    23    24 ar
     8    30    29 1
     9    28    24 ar
    10    28    29 1
    11    21    22 1
    12    21    20 2
    13    22    18 2
    14    11     4 1
    15    29    32 1
    16    29    31 1
    17    20    19 1
    18    18    19 1
    19    18    17 1
    20    14    17 1
    21    14    13 2
    22     3     4 1
    23     3     2 1
    24     4     5 1
    25    17    16 2
    26    13     2 1
    27    13    15 1
    28     2     1 2
    29     5     6 ar
    30     5    10 ar
    31    16    15 1
    32     6     7 ar
    33    10     9 ar
    34     7     8 ar
    35     9     8 ar
    36     3    33 1
    37     4    34 1
    38     6    35 1
    39     7    36 1
    40     8    37 1
    41     9    38 1
    42    10    39 1
    43    11    40 1
    44    11    41 1
    45    12    42 1
    46    14    43 1
    47    15    44 1
    48    16    45 1
    49    19    46 1
    50    21    47 1
    51    24    48 1
    52    25    49 1
    53    26    50 1
    54    27    51 1
@<TRIPOS>SUBSTRUCTURE
     1 EK4         1 TEMP              0 ****  ****    0 ROOT
