@<TRIPOS>MOLECULE
molecule
   49    53     1     0     0
SMALL
bcc


@<TRIPOS>ATOM
      1 O1           0.0000     0.0000     0.0000 o          1 EK5      -0.589100
      2 C14          1.2170     0.0000     0.0000 c          1 EK5       0.699700
      3 N4           1.8910     0.0000     1.1670 ns         1 EK5      -0.588900
      4 C15          1.1590    -0.0010     2.4360 c3         1 EK5       0.170300
      5 C16          2.1380    -0.0010     3.5810 ca         1 EK5      -0.156300
      6 C23          2.5890     1.1940     4.1090 ca         1 EK5      -0.081000
      7 C22          3.4830     1.2000     5.1590 ca         1 EK5      -0.151000
      8 C21          3.9420     0.0000     5.6960 ca         1 EK5       0.135100
      9 O2           4.8040    -0.2230     6.7250 os         1 EK5      -0.312900
     10 C20          5.3050    -1.5680     6.6420 c3         1 EK5       0.130400
     11 C19          4.1570    -2.3170     5.9220 c3         1 EK5      -0.066100
     12 C18          3.4850    -1.1950     5.1540 ca         1 EK5      -0.179300
     13 C17          2.5850    -1.1980     4.1120 ca         1 EK5      -0.063000
     14 C12          1.9510    -0.0040    -1.2710 cc         1 EK5      -0.200900
     15 C11          1.3920    -0.0040    -2.5180 cd         1 EK5      -0.075000
     16 N3           3.3200    -0.0040    -1.4130 na         1 EK5      -0.143100
     17 C13          3.6280    -0.0090    -2.7260 cc         1 EK5      -0.125300
     18 C10          2.4520    -0.0100    -3.4470 cd         1 EK5      -0.135000
     19 C9           2.3290    -0.0120    -4.9200 cd         1 EK5       0.028700
     20 N2           3.0160     0.7760    -5.7930 na         1 EK5      -0.040600
     21 N1           2.6000     0.4560    -7.0900 nd         1 EK5      -0.513800
     22 C8           1.6980    -0.4860    -7.0280 cc         1 EK5       0.353200
     23 C7           1.4930    -0.8220    -5.6780 cc         1 EK5      -0.260300
     24 C3           0.5530    -1.8440    -5.1580 ca         1 EK5       0.015000
     25 C2          -0.8000    -1.7800    -5.4860 ca         1 EK5      -0.116000
     26 C4           1.0200    -2.8740    -4.3440 ca         1 EK5      -0.114000
     27 C5           0.1400    -3.8230    -3.8630 ca         1 EK5      -0.121000
     28 C6          -1.2030    -3.7530    -4.1880 ca         1 EK5      -0.125000
     29 C1          -1.6710    -2.7350    -4.9990 ca         1 EK5       0.030400
     30 Cl          -3.3590    -2.6540    -5.4010 cl         1 EK5      -0.114400
     31 H10          2.8920     0.0270     1.1670 hn         1 EK5       0.305500
     32 H12          0.5370    -0.8860     2.4930 h1         1 EK5       0.062200
     33 H11          0.5350     0.8830     2.4930 h1         1 EK5       0.062200
     34 H19          2.2350     2.1320     3.6980 ha         1 EK5       0.141000
     35 H18          3.8310     2.1410     5.5670 ha         1 EK5       0.144000
     36 H17          6.2010    -1.5930     6.0340 h1         1 EK5       0.064200
     37 H16          5.4460    -1.9730     7.6360 h1         1 EK5       0.064200
     38 H15          4.5630    -3.0490     5.2350 hc         1 EK5       0.066700
     39 H14          3.4710    -2.7350     6.6490 hc         1 EK5       0.066700
     40 H13          2.1930    -2.1360     3.7390 ha         1 EK5       0.137000
     41 H8           0.3340    -0.0030    -2.7490 ha         1 EK5       0.184000
     42 H2           3.9810    -0.0030    -0.6610 hn         1 EK5       0.297700
     43 H9           4.6280    -0.0120    -3.1420 h4         1 EK5       0.172000
     44 H1           3.7000     1.4650    -5.5480 hn         1 EK5       0.329700
     45 H7           1.1950    -0.9370    -7.8750 h4         1 EK5       0.053100
     46 H3          -1.1680    -0.9840    -6.1210 ha         1 EK5       0.147000
     47 H4           2.0710    -2.9300    -4.0890 ha         1 EK5       0.137000
     48 H5           0.5020    -4.6230    -3.2290 ha         1 EK5       0.134000
     49 H6          -1.8890    -4.5000    -3.8080 ha         1 EK5       0.141000
@<TRIPOS>BOND
     1    27    26 ar
     2    27    28 ar
     3    26    24 ar
     4    28    29 ar
     5    24    23 1
     6    24    25 ar
     7    22    23 1
     8    22    21 2
     9    23    19 2
    10    29    25 ar
    11    29    30 1
    12    21    20 1
    13    19    20 1
    14    19    18 1
    15    15    18 1
    16    15    14 2
    17     3     4 1
    18     3     2 1
    19     4     5 1
    20    18    17 2
    21    14     2 1
    22    14    16 1
    23     2     1 2
    24     5     6 ar
    25     5    13 ar
    26    17    16 1
    27     6     7 ar
    28    13    12 ar
    29     7     8 ar
    30    12     8 ar
    31    12    11 1
    32     8     9 1
    33    11    10 1
    34     9    10 1
    35     3    31 1
    36     4    32 1
    37     4    33 1
    38     6    34 1
    39     7    35 1
    40    10    36 1
    41    10    37 1
    42    11    38 1
    43    11    39 1
    44    13    40 1
    45    15    41 1
    46    16    42 1
    47    17    43 1
    48    20    44 1
    49    22    45 1
    50    25    46 1
    51    26    47 1
    52    27    48 1
    53    28    49 1
@<TRIPOS>SUBSTRUCTURE
     1 EK5         1 TEMP              0 ****  ****    0 ROOT
