@<TRIPOS>MOLECULE
EK5
   49    53     1     0     0
SMALL
bcc


@<TRIPOS>ATOM
      1 O1           0.0000     0.0000     0.0000 o          1 EK5      -0.630100
      2 C14          1.2170     0.0000     0.0000 c          1 EK5       0.632700
      3 N4           1.8910     0.0000     1.1670 ns         1 EK5      -0.210900
      4 C15          1.1590    -0.0010     2.4360 c3         1 EK5       0.125300
      5 C16          2.1380    -0.0010     3.5810 ca         1 EK5      -0.169300
      6 C23          2.5890     1.1940     4.1090 ca         1 EK5      -0.051000
      7 C22          3.4830     1.2000     5.1590 ca         1 EK5      -0.128000
      8 C21          3.9420     0.0000     5.6960 ca         1 EK5       0.148100
      9 O2           4.8040    -0.2230     6.7250 os         1 EK5      -0.296900
     10 C20          5.3050    -1.5680     6.6420 c3         1 EK5       0.208400
     11 C19          4.1570    -2.3170     5.9220 c3         1 EK5       0.010900
     12 C18          3.4850    -1.1950     5.1540 ca         1 EK5      -0.194300
     13 C17          2.5850    -1.1980     4.1120 ca         1 EK5      -0.026000
     14 C12          1.9510    -0.0040    -1.2710 cc         1 EK5      -0.412900
     15 C11          1.3920    -0.0040    -2.5180 cd         1 EK5      -0.038000
     16 N3           3.3200    -0.0040    -1.4130 na         1 EK5       0.435900
     17 C13          3.6280    -0.0090    -2.7260 cc         1 EK5      -0.320300
     18 C10          2.4520    -0.0100    -3.4470 cd         1 EK5      -0.117000
     19 C9           2.3290    -0.0120    -4.9200 cd         1 EK5      -0.131300
     20 N2           3.0160     0.7760    -5.7930 na         1 EK5       0.453400
     21 N1           2.6000     0.4560    -7.0900 nd         1 EK5      -0.671800
     22 C8           1.6980    -0.4860    -7.0280 cc         1 EK5       0.414200
     23 C7           1.4930    -0.8220    -5.6780 cc         1 EK5      -0.270300
     24 C3           0.5530    -1.8440    -5.1580 ca         1 EK5       0.035000
     25 C2          -0.8000    -1.7800    -5.4860 ca         1 EK5      -0.099000
     26 C4           1.0200    -2.8740    -4.3440 ca         1 EK5      -0.096000
     27 C5           0.1400    -3.8230    -3.8630 ca         1 EK5      -0.090000
     28 C6          -1.2030    -3.7530    -4.1880 ca         1 EK5      -0.106000
     29 C1          -1.6710    -2.7350    -4.9990 ca         1 EK5      -0.027600
     30 Cl          -3.3590    -2.6540    -5.4010 cl         1 EK5      -0.035400
     31 H10          2.8920     0.0270     1.1670 hn         1 EK5       0.164500
     32 H12          0.5370    -0.8860     2.4930 h1         1 EK5       0.030700
     33 H11          0.5350     0.8830     2.4930 h1         1 EK5       0.030700
     34 H19          2.2350     2.1320     3.6980 ha         1 EK5       0.109000
     35 H18          3.8310     2.1410     5.5670 ha         1 EK5       0.115000
     36 H17          6.2010    -1.5930     6.0340 h1         1 EK5       0.019200
     37 H16          5.4460    -1.9730     7.6360 h1         1 EK5       0.019200
     38 H15          4.5630    -3.0490     5.2350 hc         1 EK5       0.031700
     39 H14          3.4710    -2.7350     6.6490 hc         1 EK5       0.031700
     40 H13          2.1930    -2.1360     3.7390 ha         1 EK5       0.108000
     41 H8           0.3340    -0.0030    -2.7490 ha         1 EK5       0.152000
     42 H2           3.9810    -0.0030    -0.6610 hn         1 EK5       0.106700
     43 H9           4.6280    -0.0120    -3.1420 h4         1 EK5       0.146000
     44 H1           3.7000     1.4650    -5.5480 hn         1 EK5       0.146700
     45 H7           1.1950    -0.9370    -7.8750 h4         1 EK5       0.006100
     46 H3          -1.1680    -0.9840    -6.1210 ha         1 EK5       0.120000
     47 H4           2.0710    -2.9300    -4.0890 ha         1 EK5       0.109000
     48 H5           0.5020    -4.6230    -3.2290 ha         1 EK5       0.102000
     49 H6          -1.8890    -4.5000    -3.8080 ha         1 EK5       0.112000
@<TRIPOS>BOND
     1     1     2 2   
     2     2     3 1   
     3     2    14 1   
     4     3     4 1   
     5     3    31 1   
     6     4     5 1   
     7     4    32 1   
     8     4    33 1   
     9     5     6 ar  
    10     5    13 ar  
    11     6     7 ar  
    12     6    34 1   
    13     7     8 ar  
    14     7    35 1   
    15     8     9 1   
    16     8    12 ar  
    17     9    10 1   
    18    10    11 1   
    19    10    36 1   
    20    10    37 1   
    21    11    12 1   
    22    11    38 1   
    23    11    39 1   
    24    12    13 ar  
    25    13    40 1   
    26    14    15 2   
    27    14    16 1   
    28    15    18 1   
    29    15    41 1   
    30    16    17 1   
    31    16    42 1   
    32    17    18 2   
    33    17    43 1   
    34    18    19 1   
    35    19    20 1   
    36    19    23 2   
    37    20    21 1   
    38    20    44 1   
    39    21    22 2   
    40    22    23 1   
    41    22    45 1   
    42    23    24 1   
    43    24    25 ar  
    44    24    26 ar  
    45    25    29 ar  
    46    25    46 1   
    47    26    27 ar  
    48    26    47 1   
    49    27    28 ar  
    50    27    48 1   
    51    28    29 ar  
    52    28    49 1   
    53    29    30 1   
@<TRIPOS>SUBSTRUCTURE
     1 EK5         1 TEMP              0 ****  ****    0 ROOT
