@<TRIPOS>MOLECULE
EK6
   65    68     1     0     0
SMALL
bcc


@<TRIPOS>ATOM
      1 Cl2          0.0000     0.0000     0.0000 cl         1 EK6      -0.015400
      2 C27          1.7370     0.0000     0.0000 ca         1 EK6      -0.008600
      3 C6           2.4280     0.0000     1.1990 ca         1 EK6      -0.108300
      4 C5           1.6700     0.0070     2.5020 c3         1 EK6       0.197100
      5 N1           1.2110    -1.3540     2.8080 n7         1 EK6      -0.558200
      6 C4           0.4660    -1.3850     4.0740 c3         1 EK6       0.100800
      7 C3           0.0110    -2.7950     4.3550 c          1 EK6       0.689100
      8 O2           0.2800    -3.6820     3.5790 o          1 EK6      -0.575000
      9 O1          -0.6910    -3.0650     5.4660 os         1 EK6      -0.417900
     10 C2          -1.0960    -4.4440     5.6710 c3         1 EK6       0.227400
     11 C1          -1.8810    -4.5570     6.9790 c3         1 EK6      -0.003100
     12 C26          2.4270    -0.0070    -1.1970 ca         1 EK6      -0.107000
     13 C9           3.8200    -0.0070    -1.1950 ca         1 EK6       0.042000
     14 C8           4.5100    -0.0020     0.0170 ca         1 EK6      -0.101000
     15 C7           3.8110    -0.0060     1.2060 ca         1 EK6      -0.089000
     16 C10          4.5660    -0.0150    -2.4760 cc         1 EK6      -0.283300
     17 C12          5.5210    -0.9430    -2.8670 cd         1 EK6      -0.126300
     18 N3           5.9480    -0.5760    -4.1080 na         1 EK6       0.462400
     19 N2           5.2560     0.5800    -4.4820 nd         1 EK6      -0.670800
     20 C11          4.4330     0.9150    -3.5240 cc         1 EK6       0.415200
     21 C13          5.9860    -2.1090    -2.0860 cd         1 EK6      -0.126000
     22 C25          7.3250    -2.4980    -1.8810 cd         1 EK6      -0.063000
     23 C15          7.3030    -3.6220    -1.1040 cc         1 EK6      -0.413900
     24 N4           5.9890    -3.9310    -0.8300 na         1 EK6       0.435900
     25 C14          5.1900    -3.0150    -1.4160 cc         1 EK6      -0.283300
     26 C16          8.4760    -4.3720    -0.6420 c          1 EK6       0.639700
     27 O3           9.5940    -4.0030    -0.9490 o          1 EK6      -0.644100
     28 N5           8.3160    -5.4710     0.1220 ns         1 EK6      -0.201900
     29 C17          9.4870    -6.2190     0.5840 c3         1 EK6       0.082000
     30 C18          9.9150    -7.2140    -0.4980 c3         1 EK6       0.206400
     31 O4           8.8890    -8.1920    -0.6780 oh         1 EK6      -0.603800
     32 C19          9.1410    -6.9670     1.8450 ca         1 EK6      -0.108300
     33 C24         10.0560    -7.0410     2.8780 ca         1 EK6      -0.062000
     34 C23          9.7390    -7.7280     4.0360 ca         1 EK6      -0.076600
     35 Cl1         10.8890    -7.8200     5.3340 cl         1 EK6       0.011600
     36 C22          8.5030    -8.3410     4.1600 ca         1 EK6       0.115900
     37 F            8.1920    -9.0120     5.2910 f          1 EK6      -0.119900
     38 C21          7.5870    -8.2660     3.1250 ca         1 EK6      -0.121000
     39 C20          7.9050    -7.5740     1.9710 ca         1 EK6      -0.061000
     40 H1           0.8150     0.6670     2.4190 h1         1 EK6       0.014200
     41 H2           2.3200     0.3560     3.2950 h1         1 EK6       0.014200
     42 H3           2.0000    -1.9670     2.8700 hn         1 EK6       0.265800
     43 H5           1.1080    -1.0460     4.8790 h1         1 EK6       0.027200
     44 H6          -0.3970    -0.7350     4.0020 h1         1 EK6       0.027200
     45 H7          -1.7220    -4.7640     4.8460 h1         1 EK6       0.008700
     46 H8          -0.2170    -5.0750     5.7220 h1         1 EK6       0.008700
     47 H9          -2.7810    -3.9580     6.9130 hc         1 EK6       0.011033
     48 H10         -1.2690    -4.1990     7.7990 hc         1 EK6       0.011033
     49 H11         -2.1480    -5.5920     7.1530 hc         1 EK6       0.011033
     50 H12          1.8850    -0.0110    -2.1350 ha         1 EK6       0.122000
     51 H13          5.5930    -0.0040     0.0240 ha         1 EK6       0.117000
     52 H14          4.3470    -0.0040     2.1480 ha         1 EK6       0.104000
     53 H15          6.6390    -1.0510    -4.6550 hn         1 EK6       0.150700
     54 H16          3.7660     1.7680    -3.5320 h4         1 EK6       0.006100
     55 H17          8.2070    -1.9990    -2.2650 ha         1 EK6       0.141000
     56 H18          5.6770    -4.7060    -0.2800 hn         1 EK6       0.109700
     57 H19          4.1080    -2.9990    -1.3750 h4         1 EK6       0.161000
     58 H20          7.3980    -5.7560     0.4020 hn         1 EK6       0.174500
     59 H21         10.3000    -5.5310     0.7840 h1         1 EK6       0.066700
     60 H22         10.0790    -6.6860    -1.4290 h1         1 EK6       0.004700
     61 H23         10.8320    -7.7050    -0.1950 h1         1 EK6       0.004700
     62 H24          9.1620    -8.8180    -1.3280 ho         1 EK6       0.398000
     63 H25         11.0140    -6.5410     2.7900 ha         1 EK6       0.123000
     64 H26          6.6200    -8.7440     3.2220 ha         1 EK6       0.124000
     65 H27          7.1890    -7.5160     1.1600 ha         1 EK6       0.116000
@<TRIPOS>BOND
     1     1     2 1   
     2     2     3 ar  
     3     2    12 ar  
     4     3     4 1   
     5     3    15 ar  
     6     4     5 1   
     7     4    40 1   
     8     4    41 1   
     9     5     6 1   
    10     5    42 1   
    11     6     7 1   
    12     6    43 1   
    13     6    44 1   
    14     7     8 2   
    15     7     9 1   
    16     9    10 1   
    17    10    11 1   
    18    10    45 1   
    19    10    46 1   
    20    11    47 1   
    21    11    48 1   
    22    11    49 1   
    23    12    13 ar  
    24    12    50 1   
    25    13    14 ar  
    26    13    16 1   
    27    14    15 ar  
    28    14    51 1   
    29    15    52 1   
    30    16    17 2   
    31    16    20 1   
    32    17    18 1   
    33    17    21 1   
    34    18    19 1   
    35    18    53 1   
    36    19    20 2   
    37    20    54 1   
    38    21    22 1   
    39    21    25 2   
    40    22    23 2   
    41    22    55 1   
    42    23    24 1   
    43    23    26 1   
    44    24    25 1   
    45    24    56 1   
    46    25    57 1   
    47    26    27 2   
    48    26    28 1   
    49    28    29 1   
    50    28    58 1   
    51    29    30 1   
    52    29    32 1   
    53    29    59 1   
    54    30    31 1   
    55    30    60 1   
    56    30    61 1   
    57    31    62 1   
    58    32    33 ar  
    59    32    39 ar  
    60    33    34 ar  
    61    33    63 1   
    62    34    35 1   
    63    34    36 ar  
    64    36    37 1   
    65    36    38 ar  
    66    38    39 ar  
    67    38    64 1   
    68    39    65 1   
@<TRIPOS>SUBSTRUCTURE
     1 EK6         1 TEMP              0 ****  ****    0 ROOT
