@<TRIPOS>MOLECULE
molecule
   65    68     1     0     0
SMALL
bcc


@<TRIPOS>ATOM
      1 Cl2          0.0000     0.0000     0.0000 cl         1 EK6      -0.098400
      2 C27          1.7370     0.0000     0.0000 ca         1 EK6       0.053400
      3 C6           2.4280     0.0000     1.1990 ca         1 EK6      -0.093300
      4 C5           1.6700     0.0070     2.5020 c3         1 EK6       0.206100
      5 N1           1.2110    -1.3540     2.8080 n7         1 EK6      -0.795200
      6 C4           0.4660    -1.3850     4.0740 c3         1 EK6       0.114800
      7 C3           0.0110    -2.7950     4.3550 c          1 EK6       0.628100
      8 O2           0.2800    -3.6820     3.5790 o          1 EK6      -0.536000
      9 O1          -0.6910    -3.0650     5.4660 os         1 EK6      -0.434900
     10 C2          -1.0960    -4.4440     5.6710 c3         1 EK6       0.147400
     11 C1          -1.8810    -4.5570     6.9790 c3         1 EK6      -0.096100
     12 C26          2.4270    -0.0070    -1.1970 ca         1 EK6      -0.124000
     13 C9           3.8200    -0.0070    -1.1950 ca         1 EK6       0.020000
     14 C8           4.5100    -0.0020     0.0170 ca         1 EK6      -0.119000
     15 C7           3.8110    -0.0060     1.2060 ca         1 EK6      -0.119000
     16 C10          4.5660    -0.0150    -2.4760 cc         1 EK6      -0.273300
     17 C12          5.5210    -0.9430    -2.8670 cd         1 EK6       0.035700
     18 N3           5.9480    -0.5760    -4.1080 na         1 EK6      -0.033600
     19 N2           5.2560     0.5800    -4.4820 nd         1 EK6      -0.511800
     20 C11          4.4330     0.9150    -3.5240 cc         1 EK6       0.354200
     21 C13          5.9860    -2.1090    -2.0860 cd         1 EK6      -0.146000
     22 C25          7.3250    -2.4980    -1.8810 cd         1 EK6      -0.097000
     23 C15          7.3030    -3.6220    -1.1040 cc         1 EK6      -0.201900
     24 N4           5.9890    -3.9310    -0.8300 na         1 EK6      -0.142100
     25 C14          5.1900    -3.0150    -1.4160 cc         1 EK6      -0.087300
     26 C16          8.4760    -4.3720    -0.6420 c          1 EK6       0.704700
     27 O3           9.5940    -4.0030    -0.9490 o          1 EK6      -0.602100
     28 N5           8.3160    -5.4710     0.1220 ns         1 EK6      -0.578900
     29 C17          9.4870    -6.2190     0.5840 c3         1 EK6       0.177000
     30 C18          9.9150    -7.2140    -0.4980 c3         1 EK6       0.126400
     31 O4           8.8890    -8.1920    -0.6780 oh         1 EK6      -0.618800
     32 C19          9.1410    -6.9670     1.8450 ca         1 EK6      -0.105300
     33 C24         10.0560    -7.0410     2.8780 ca         1 EK6      -0.089000
     34 C23          9.7390    -7.7280     4.0360 ca         1 EK6      -0.014600
     35 Cl1         10.8890    -7.8200     5.3340 cl         1 EK6      -0.081400
     36 C22          8.5030    -8.3410     4.1600 ca         1 EK6       0.146900
     37 F            8.1920    -9.0120     5.2910 f          1 EK6      -0.125900
     38 C21          7.5870    -8.2660     3.1250 ca         1 EK6      -0.160000
     39 C20          7.9050    -7.5740     1.9710 ca         1 EK6      -0.081000
     40 H1           0.8150     0.6670     2.4190 h1         1 EK6       0.044200
     41 H2           2.3200     0.3560     3.2950 h1         1 EK6       0.044200
     42 H3           2.0000    -1.9670     2.8700 hn         1 EK6       0.367800
     43 H5           1.1080    -1.0460     4.8790 h1         1 EK6       0.061700
     44 H6          -0.3970    -0.7350     4.0020 h1         1 EK6       0.061700
     45 H7          -1.7220    -4.7640     4.8460 h1         1 EK6       0.049200
     46 H8          -0.2170    -5.0750     5.7220 h1         1 EK6       0.049200
     47 H9          -2.7810    -3.9580     6.9130 hc         1 EK6       0.047700
     48 H10         -1.2690    -4.1990     7.7990 hc         1 EK6       0.047700
     49 H11         -2.1480    -5.5920     7.1530 hc         1 EK6       0.047700
     50 H12          1.8850    -0.0110    -2.1350 ha         1 EK6       0.150000
     51 H13          5.5930    -0.0040     0.0240 ha         1 EK6       0.145000
     52 H14          4.3470    -0.0040     2.1480 ha         1 EK6       0.133000
     53 H15          6.6390    -1.0510    -4.6550 hn         1 EK6       0.335700
     54 H16          3.7660     1.7680    -3.5320 h4         1 EK6       0.053100
     55 H17          8.2070    -1.9990    -2.2650 ha         1 EK6       0.172000
     56 H18          5.6770    -4.7060    -0.2800 hn         1 EK6       0.300700
     57 H19          4.1080    -2.9990    -1.3750 h4         1 EK6       0.189000
     58 H20          7.3980    -5.7560     0.4020 hn         1 EK6       0.312500
     59 H21         10.3000    -5.5310     0.7840 h1         1 EK6       0.095700
     60 H22         10.0790    -6.6860    -1.4290 h1         1 EK6       0.040700
     61 H23         10.8320    -7.7050    -0.1950 h1         1 EK6       0.040700
     62 H24          9.1620    -8.8180    -1.3280 ho         1 EK6       0.409000
     63 H25         11.0140    -6.5410     2.7900 ha         1 EK6       0.153000
     64 H26          6.6200    -8.7440     3.2220 ha         1 EK6       0.154000
     65 H27          7.1890    -7.5160     1.1600 ha         1 EK6       0.144000
@<TRIPOS>BOND
     1    11    10 1
     2     5     6 1
     3     5     4 1
     4    15    14 ar
     5    15     3 ar
     6     6     7 1
     7    14    13 ar
     8     4     3 1
     9     9    10 1
    10     9     7 1
    11    31    30 1
    12     3     2 ar
    13     7     8 2
    14    30    29 1
    15    13    16 1
    16    13    12 ar
    17    20    16 1
    18    20    19 2
    19    16    17 2
    20     2    12 ar
    21     2     1 1
    22    19    18 1
    23    17    18 1
    24    17    21 1
    25    22    21 1
    26    22    23 2
    27    29    28 1
    28    29    32 1
    29    28    26 1
    30    21    25 2
    31    23    26 1
    32    23    24 1
    33    26    27 2
    34    32    33 ar
    35    32    39 ar
    36    25    24 1
    37    33    34 ar
    38    39    38 ar
    39    34    35 1
    40    34    36 ar
    41    38    36 ar
    42    36    37 1
    43     4    40 1
    44     4    41 1
    45     5    42 1
    46     6    43 1
    47     6    44 1
    48    10    45 1
    49    10    46 1
    50    11    47 1
    51    11    48 1
    52    11    49 1
    53    12    50 1
    54    14    51 1
    55    15    52 1
    56    18    53 1
    57    20    54 1
    58    22    55 1
    59    24    56 1
    60    25    57 1
    61    28    58 1
    62    29    59 1
    63    30    60 1
    64    30    61 1
    65    31    62 1
    66    33    63 1
    67    38    64 1
    68    39    65 1
@<TRIPOS>SUBSTRUCTURE
     1 EK6         1 TEMP              0 ****  ****    0 ROOT
