@<TRIPOS>MOLECULE
molecule
   43    46     1     0     0
SMALL
bcc


@<TRIPOS>ATOM
      1 N5          -1.4840    -0.0620     2.0950 n1         1 EK7      -0.360800
      2 C19         -0.8190    -0.0350     1.1750 cg         1 EK7       0.271800
      3 C1           0.0000     0.0000     0.0000 cd         1 EK7      -0.000100
      4 C2           1.3590     0.0000     0.0000 cc         1 EK7      -0.021300
      5 C9           2.2530     0.0000     1.2290 c3         1 EK7      -0.067100
      6 C8           3.5310    -0.7780     0.9360 c3         1 EK7      -0.145100
      7 C7           4.1610    -0.3760    -0.3640 ca         1 EK7      -0.292900
      8 C4           3.3850    -0.0110    -1.4690 ca         1 EK7       0.572800
      9 C3           1.9080     0.0230    -1.2970 cc         1 EK7      -0.175500
     10 C16          0.9670     0.0610    -2.2920 cd         1 EK7       0.170500
     11 N4           1.2570     0.1020    -3.6410 nh         1 EK7      -0.554000
     12 C18          0.6900    -1.0610    -4.3370 c3         1 EK7       0.149100
     13 C17          0.7870     1.3570    -4.2430 c3         1 EK7       0.149100
     14 S           -0.6100     0.0410    -1.6460 ss         1 EK7      -0.105800
     15 C6           5.5350    -0.3610    -0.5080 ca         1 EK7       0.442200
     16 N2           6.0560    -0.0210    -1.6800 nb         1 EK7      -0.775000
     17 C5           5.2880     0.2990    -2.7110 ca         1 EK7       0.914900
     18 N1           3.9640     0.3070    -2.6170 nb         1 EK7      -0.732000
     19 N3           5.8830     0.6350    -3.9170 nu         1 EK7      -0.744300
     20 C10          7.2680     0.5270    -4.0680 ca         1 EK7       0.161600
     21 C15          7.9630    -0.4780    -3.4050 ca         1 EK7      -0.141000
     22 C14          9.3320    -0.5870    -3.5550 ca         1 EK7      -0.104000
     23 C13         10.0140     0.3040    -4.3630 ca         1 EK7      -0.165000
     24 C12          9.3240     1.3090    -5.0280 ca         1 EK7       0.117100
     25 O            9.9960     2.1840    -5.8210 oh         1 EK7      -0.522100
     26 C11          7.9500     1.4170    -4.8840 ca         1 EK7      -0.183000
     27 H4           2.0770    -0.9360     1.7460 hc         1 EK7       0.082200
     28 H5           1.9440     0.8380     1.8420 hc         1 EK7       0.082200
     29 H2           4.3350    -0.0540     0.8890 hc         1 EK7       0.108200
     30 H3           3.6810    -1.4590     1.7650 hc         1 EK7       0.108200
     31 H16          1.4550    -1.5230    -4.9510 h1         1 EK7       0.044367
     32 H15          0.3300    -1.7780    -3.6090 h1         1 EK7       0.044367
     33 H17         -0.1320    -0.7410    -4.9650 h1         1 EK7       0.044367
     34 H14         -0.1290     1.1740    -4.7900 h1         1 EK7       0.044367
     35 H12          0.6020     2.0850    -3.4620 h1         1 EK7       0.044367
     36 H13          1.5420     1.7380    -4.9200 h1         1 EK7       0.044367
     37 H1           6.1660    -0.7820     0.2660 h4         1 EK7       0.032100
     38 H6           5.3330     0.6710    -4.7530 hn         1 EK7       0.463800
     39 H11          7.4410    -1.1400    -2.7250 ha         1 EK7       0.160000
     40 H10          9.8730    -1.3700    -3.0380 ha         1 EK7       0.134000
     41 H9          11.0870     0.2180    -4.4790 ha         1 EK7       0.140000
     42 H8          10.1680     2.9770    -5.3410 ho         1 EK7       0.419000
     43 H7           7.4180     2.2340    -5.3570 ha         1 EK7       0.143000
@<TRIPOS>BOND
     1     6     5 1
     2     6     7 1
     3    15     7 ar
     4    15    16 ar
     5     5     4 1
     6     7     8 ar
     7    16    17 ar
     8     1     2 3
     9     4     3 2
    10     4     9 1
    11     2     3 1
    12     8     9 1
    13     8    18 ar
    14     3    14 1
    15    17    18 ar
    16    17    19 1
    17     9    10 2
    18    19    20 1
    19    10    14 1
    20    10    11 1
    21    13    11 1
    22    11    12 1
    23    20    26 ar
    24    20    21 ar
    25    26    24 ar
    26    21    22 ar
    27    24    25 1
    28    24    23 ar
    29    22    23 ar
    30     5    27 1
    31     5    28 1
    32     6    29 1
    33     6    30 1
    34    12    31 1
    35    12    32 1
    36    12    33 1
    37    13    34 1
    38    13    35 1
    39    13    36 1
    40    15    37 1
    41    19    38 1
    42    21    39 1
    43    22    40 1
    44    23    41 1
    45    25    42 1
    46    26    43 1
@<TRIPOS>SUBSTRUCTURE
     1 EK7         1 TEMP              0 ****  ****    0 ROOT
