@<TRIPOS>MOLECULE
EK7
   43    47     1     0     0
SMALL
bcc


@<TRIPOS>ATOM
      1 N5          -1.4840    -0.0620     2.0950 n1         1 EK7      -0.050000
      2 C19         -0.8190    -0.0350     1.1750 c1         1 EK7      -0.064000
      3 C1           0.0000     0.0000     0.0000 c2         1 EK7      -0.166000
      4 C2           1.3590     0.0000     0.0000 c2         1 EK7      -0.027000
      5 C9           2.2530     0.0000     1.2290 c3         1 EK7      -0.091000
      6 C8           3.5310    -0.7780     0.9360 c3         1 EK7      -0.179000
      7 C7           4.1610    -0.3760    -0.3640 c3         1 EK7      -0.137000
      8 C4           3.3850    -0.0110    -1.4690 c2         1 EK7       0.080000
      9 C3           1.9080     0.0230    -1.2970 c2         1 EK7      -0.060000
     10 C16          0.9670     0.0610    -2.2920 c2         1 EK7      -0.218000
     11 N4           1.2570     0.1020    -3.6410 nh         1 EK7       0.076000
     12 C18          0.6900    -1.0610    -4.3370 c3         1 EK7      -0.116500
     13 C17          0.7870     1.3570    -4.2430 c3         1 EK7      -0.116500
     14 S           -0.6100     0.0410    -1.6460 ss         1 EK7       0.308000
     15 C6           5.5350    -0.3610    -0.5080 c2         1 EK7      -0.044000
     16 N2           6.0560    -0.0210    -1.6800 n2         1 EK7      -0.137000
     17 C5           5.2880     0.2990    -2.7110 c2         1 EK7      -0.040000
     18 N1           3.9640     0.3070    -2.6170 n2         1 EK7      -0.095000
     19 N3           5.8830     0.6350    -3.9170 nu         1 EK7       0.187000
     20 C10          7.2680     0.5270    -4.0680 ca         1 EK7      -0.069000
     21 C15          7.9630    -0.4780    -3.4050 ca         1 EK7      -0.134000
     22 C14          9.3320    -0.5870    -3.5550 ca         1 EK7      -0.064000
     23 C13         10.0140     0.3040    -4.3630 ca         1 EK7      -0.149000
     24 C12          9.3240     1.3090    -5.0280 ca         1 EK7       0.094000
     25 O            9.9960     2.1840    -5.8210 oh         1 EK7      -0.255000
     26 C11          7.9500     1.4170    -4.8840 ca         1 EK7      -0.166000
     27 H4           2.0770    -0.9360     1.7460 hc         1 EK7       0.091500
     28 H5           1.9440     0.8380     1.8420 hc         1 EK7       0.091500
     29 H2           4.3350    -0.0540     0.8890 DU         1 EK7       0.102000
     30 H3           3.6810    -1.4590     1.7650 hc         1 EK7       0.141000
     31 H16          1.4550    -1.5230    -4.9510 h1         1 EK7       0.053000
     32 H15          0.3300    -1.7780    -3.6090 h1         1 EK7       0.053000
     33 H17         -0.1320    -0.7410    -4.9650 h1         1 EK7       0.053000
     34 H14         -0.1290     1.1740    -4.7900 h1         1 EK7       0.053000
     35 H12          0.6020     2.0850    -3.4620 h1         1 EK7       0.053000
     36 H13          1.5420     1.7380    -4.9200 h1         1 EK7       0.053000
     37 H1           6.1660    -0.7820     0.2660 h4         1 EK7       0.126000
     38 H6           5.3330     0.6710    -4.7530 hn         1 EK7       0.089000
     39 H11          7.4410    -1.1400    -2.7250 ha         1 EK7       0.138000
     40 H10          9.8730    -1.3700    -3.0380 ha         1 EK7       0.103000
     41 H9          11.0870     0.2180    -4.4790 ha         1 EK7       0.114000
     42 H8          10.1680     2.9770    -5.3410 ho         1 EK7       0.201000
     43 H7           7.4180     2.2340    -5.3570 ha         1 EK7       0.118000
@<TRIPOS>BOND
     1     1     2 1   
     2     2     3 1   
     3     3     4 1   
     4     3    14 1   
     5     4     5 1   
     6     4     9 1   
     7     5     6 1   
     8     5    27 1   
     9     5    28 1   
    10     6     7 1   
    11     6    29 1   
    12     6    30 1   
    13     7     8 1   
    14     7    15 1   
    15     7    29 1   
    16     8     9 1   
    17     8    18 1   
    18     9    10 1   
    19    10    11 1   
    20    10    14 1   
    21    11    12 1   
    22    11    13 1   
    23    12    31 1   
    24    12    32 1   
    25    12    33 1   
    26    13    34 1   
    27    13    35 1   
    28    13    36 1   
    29    15    16 1   
    30    15    37 1   
    31    16    17 1   
    32    17    18 1   
    33    17    19 1   
    34    19    20 1   
    35    19    38 1   
    36    20    21 1   
    37    20    26 1   
    38    21    22 1   
    39    21    39 1   
    40    22    23 1   
    41    22    40 1   
    42    23    24 1   
    43    23    41 1   
    44    24    25 1   
    45    24    26 1   
    46    25    42 1   
    47    26    43 1   
@<TRIPOS>SUBSTRUCTURE
     1 EK7         1 TEMP              0 ****  ****    0 ROOT
