@<TRIPOS>MOLECULE
molecule
   75    78     1     0     0
SMALL
bcc


@<TRIPOS>ATOM
      1 N89          0.0000     0.0000     0.0000 nh         1 EK8      -0.595000
      2 C80          1.4680     0.0000     0.0000 c3         1 EK8       0.166300
      3 C81          1.9800     0.0000     1.4420 c3         1 EK8      -0.081900
      4 C82          1.4520     1.2410     2.1660 c3         1 EK8      -0.083400
      5 C83         -0.0780     1.2420     2.1100 c3         1 EK8      -0.081900
      6 C84         -0.5300     1.2060     0.6490 c3         1 EK8       0.166300
      7 C99         -1.8740    -0.1530    -1.5050 ca         1 EK8      -0.184500
      8 C98         -0.4990    -0.1320    -1.2900 ca         1 EK8       0.121600
      9 C19          0.3780    -0.2410    -2.3670 ca         1 EK8      -0.184500
     10 C17         -0.1120    -0.3720    -3.6460 ca         1 EK8      -0.062500
     11 C87         -1.4930    -0.3930    -3.8640 ca         1 EK8      -0.168600
     12 C22         -2.3710    -0.2840    -2.7820 ca         1 EK8      -0.062500
     13 C97         -2.0220    -0.5320    -5.2350 c          1 EK8       0.671700
     14 O99         -1.2570    -0.6270    -6.1750 o          1 EK8      -0.625100
     15 N99         -3.3530    -0.5530    -5.4440 ns         1 EK8      -0.568900
     16 C15         -3.8790    -0.6910    -6.8040 c3         1 EK8       0.173300
     17 C8          -5.3850    -0.6860    -6.7630 ca         1 EK8      -0.157300
     18 C9          -6.0730     0.5130    -6.6630 ca         1 EK8       0.128100
     19 O3          -5.3910     1.6860    -6.6000 os         1 EK8      -0.335900
     20 C12         -6.1650     2.8830    -6.4960 c3         1 EK8       0.140400
     21 C13         -5.2300     4.0920    -6.4390 c3         1 EK8      -0.085400
     22 C14         -6.0590     5.3730    -6.3280 c3         1 EK8      -0.091100
     23 C10         -7.4610     0.5130    -6.6250 ca         1 EK8      -0.227000
     24 C11         -8.1520    -0.6810    -6.6890 ca         1 EK8      -0.082000
     25 C6          -7.4640    -1.8760    -6.7900 ca         1 EK8      -0.092300
     26 C5          -8.2210    -3.1770    -6.8600 c3         1 EK8      -0.022100
     27 C2          -8.6430    -3.4440    -8.3060 c3         1 EK8      -0.163700
     28 C3          -7.3980    -3.6740    -9.1650 c3         1 EK8      -0.023100
     29 C4          -7.8040    -3.8160   -10.6100 ca         1 EK8      -0.045300
     30 C51         -7.8750    -2.6990   -11.4210 ca         1 EK8      -0.103500
     31 C52         -8.2480    -2.8290   -12.7460 ca         1 EK8      -0.136000
     32 C53         -8.5500    -4.0760   -13.2590 ca         1 EK8      -0.149000
     33 C54         -8.4790    -5.1930   -12.4480 ca         1 EK8      -0.136000
     34 C55         -8.1010    -5.0640   -11.1250 ca         1 EK8      -0.103500
     35 C7          -6.0820    -1.8780    -6.8330 ca         1 EK8      -0.082000
     36 C1          -9.5200    -4.6690    -8.3550 c          1 EK8       0.890600
     37 O1          -9.3000    -5.6000    -7.6160 o          1 EK8      -0.843800
     38 O2         -10.5450    -4.7250    -9.2190 o          1 EK8      -0.843800
     39 H1           1.8280    -0.8860    -0.5090 h1         1 EK8       0.043700
     40 H2           1.8280     0.8860    -0.5090 h1         1 EK8       0.043700
     41 H3           1.6290    -0.8900     1.9490 hc         1 EK8       0.049450
     42 H4           3.0640     0.0180     1.4390 hc         1 EK8       0.049450
     43 H5           1.7750     1.2200     3.1990 hc         1 EK8       0.039700
     44 H6           1.8310     2.1310     1.6790 hc         1 EK8       0.039700
     45 H7          -0.4550     2.1410     2.5820 hc         1 EK8       0.049450
     46 H8          -0.4580     0.3690     2.6270 hc         1 EK8       0.049450
     47 H9          -0.1580     2.0840     0.1360 h1         1 EK8       0.043700
     48 H10         -1.6130     1.1900     0.6090 h1         1 EK8       0.043700
     49 H12          1.4470    -0.2250    -2.1970 ha         1 EK8       0.136500
     50 H13          0.5710    -0.4570    -4.4830 ha         1 EK8       0.144500
     51 H14         -3.4420    -0.3010    -2.9480 ha         1 EK8       0.144500
     52 H15         -3.9820    -0.5050    -4.6670 hn         1 EK8       0.316500
     53 H16         -3.5310     0.1360    -7.4110 h1         1 EK8       0.059200
     54 H17         -3.5320    -1.6240    -7.2320 h1         1 EK8       0.059200
     55 H18         -6.7650     2.8480    -5.5950 h1         1 EK8       0.033700
     56 H19         -6.8140     2.9700    -7.3590 h1         1 EK8       0.033700
     57 H20         -4.5810     4.0060    -5.5760 hc         1 EK8       0.053200
     58 H21         -4.6290     4.1280    -7.3400 hc         1 EK8       0.053200
     59 H22         -6.6590     5.3380    -5.4270 hc         1 EK8       0.033700
     60 H23         -5.3970     6.2300    -6.2880 hc         1 EK8       0.033700
     61 H24         -6.7080     5.4590    -7.1910 hc         1 EK8       0.033700
     62 H25         -8.0010     1.4490    -6.5460 ha         1 EK8       0.126000
     63 H26         -9.2350    -0.6810    -6.6590 ha         1 EK8       0.140000
     64 H27         -7.5860    -3.9830    -6.5130 hc         1 EK8       0.057200
     65 H28         -9.1020    -3.1160    -6.2320 hc         1 EK8       0.057200
     66 H29         -9.1920    -2.5910    -8.6860 hc         1 EK8       0.052700
     67 H30         -6.7260    -2.8310    -9.0610 hc         1 EK8       0.034700
     68 H31         -6.8960    -4.5780    -8.8400 hc         1 EK8       0.034700
     69 H32         -7.6390    -1.7210   -11.0180 ha         1 EK8       0.132500
     70 H33         -8.3040    -1.9530   -13.3810 ha         1 EK8       0.109500
     71 H34         -8.8450    -4.1780   -14.2960 ha         1 EK8       0.104000
     72 H35         -8.7140    -6.1710   -12.8520 ha         1 EK8       0.109500
     73 H36         -8.0450    -5.9400   -10.4900 ha         1 EK8       0.132500
     74 H37         -5.5450    -2.8160    -6.9120 ha         1 EK8       0.144000
     75 H11         -2.5540    -0.0690    -0.6660 ha         1 EK8       0.136500
@<TRIPOS>BOND
     1     5     6 1
     2     5     4 1
     3     6     1 1
     4     4     3 1
     5    22    21 1
     6     1     8 1
     7     1     2 1
     8     8     7 ar
     9     8     9 ar
    10     3     2 1
    11     7    12 ar
    12     9    10 ar
    13    21    20 1
    14    12    11 ar
    15    10    11 ar
    16    11    13 1
    17    14    13 2
    18    20    19 1
    19    13    15 1
    20    19    18 1
    21    15    16 1
    22    16    17 1
    23    18    17 ar
    24    18    23 ar
    25    17    35 ar
    26    23    24 ar
    27    35    25 ar
    28    24    25 ar
    29    25    26 1
    30    26    27 1
    31    28    27 1
    32    28    29 1
    33    27    36 1
    34    34    29 ar
    35    34    33 ar
    36    29    30 ar
    37    33    32 ar
    38    36    37 1
    39    36    38 1
    40    30    31 ar
    41    32    31 ar
    42     2    39 1
    43     2    40 1
    44     3    41 1
    45     3    42 1
    46     4    43 1
    47     4    44 1
    48     5    45 1
    49     5    46 1
    50     6    47 1
    51     6    48 1
    52     7    75 1
    53     9    49 1
    54    10    50 1
    55    12    51 1
    56    15    52 1
    57    16    53 1
    58    16    54 1
    59    20    55 1
    60    20    56 1
    61    21    57 1
    62    21    58 1
    63    22    59 1
    64    22    60 1
    65    22    61 1
    66    23    62 1
    67    24    63 1
    68    26    64 1
    69    26    65 1
    70    27    66 1
    71    28    67 1
    72    28    68 1
    73    30    69 1
    74    31    70 1
    75    32    71 1
    76    33    72 1
    77    34    73 1
    78    35    74 1
@<TRIPOS>SUBSTRUCTURE
     1 EK8         1 TEMP              0 ****  ****    0 ROOT
