@<TRIPOS>MOLECULE
EK8
   75    78     1     0     0
SMALL
bcc


@<TRIPOS>ATOM
      1 N89          0.0000     0.0000     0.0000 nh         1 EK8      -0.353000
      2 C80          1.4680     0.0000     0.0000 c3         1 EK8       0.134800
      3 C81          1.9800     0.0000     1.4420 c3         1 EK8      -0.026400
      4 C82          1.4520     1.2410     2.1660 c3         1 EK8      -0.028400
      5 C83         -0.0780     1.2420     2.1100 c3         1 EK8      -0.026400
      6 C84         -0.5300     1.2060     0.6490 c3         1 EK8       0.134800
      7 C99         -1.8740    -0.1530    -1.5050 ca         1 EK8      -0.166500
      8 C98         -0.4990    -0.1320    -1.2900 ca         1 EK8       0.035600
      9 C19          0.3780    -0.2410    -2.3670 ca         1 EK8      -0.166500
     10 C17         -0.1120    -0.3720    -3.6460 ca         1 EK8      -0.032000
     11 C87         -1.4930    -0.3930    -3.8640 ca         1 EK8      -0.175600
     12 C22         -2.3710    -0.2840    -2.7820 ca         1 EK8      -0.032000
     13 C97         -2.0220    -0.5320    -5.2350 c          1 EK8       0.591700
     14 O99         -1.2570    -0.6270    -6.1750 o          1 EK8      -0.667100
     15 N99         -3.3530    -0.5530    -5.4440 ns         1 EK8      -0.180900
     16 C15         -3.8790    -0.6910    -6.8040 c3         1 EK8       0.122300
     17 C8          -5.3850    -0.6860    -6.7630 ca         1 EK8      -0.176300
     18 C9          -6.0730     0.5130    -6.6630 ca         1 EK8       0.138100
     19 O3          -5.3910     1.6860    -6.6000 os         1 EK8      -0.311900
     20 C12         -6.1650     2.8830    -6.4960 c3         1 EK8       0.200400
     21 C13         -5.2300     4.0920    -6.4390 c3         1 EK8      -0.036400
     22 C14         -6.0590     5.3730    -6.3280 c3         1 EK8       0.010900
     23 C10         -7.4610     0.5130    -6.6250 ca         1 EK8      -0.218000
     24 C11         -8.1520    -0.6810    -6.6890 ca         1 EK8      -0.048000
     25 C6          -7.4640    -1.8760    -6.7900 ca         1 EK8      -0.097300
     26 C5          -8.2210    -3.1770    -6.8600 c3         1 EK8       0.039900
     27 C2          -8.6430    -3.4440    -8.3060 c3         1 EK8      -0.150700
     28 C3          -7.3980    -3.6740    -9.1650 c3         1 EK8       0.031900
     29 C4          -7.8040    -3.8160   -10.6100 ca         1 EK8      -0.048300
     30 C51         -7.8750    -2.6990   -11.4210 ca         1 EK8      -0.078000
     31 C52         -8.2480    -2.8290   -12.7460 ca         1 EK8      -0.111500
     32 C53         -8.5500    -4.0760   -13.2590 ca         1 EK8      -0.127000
     33 C54         -8.4790    -5.1930   -12.4480 ca         1 EK8      -0.111500
     34 C55         -8.1010    -5.0640   -11.1250 ca         1 EK8      -0.078000
     35 C7          -6.0820    -1.8780    -6.8330 ca         1 EK8      -0.051000
     36 C1          -9.5200    -4.6690    -8.3550 c          1 EK8       0.977600
     37 O1          -9.3000    -5.6000    -7.6160 o          1 EK8      -0.892300
     38 O2         -10.5450    -4.7250    -9.2190 o          1 EK8      -0.892300
     39 H1           1.8280    -0.8860    -0.5090 h1         1 EK8       0.019950
     40 H2           1.8280     0.8860    -0.5090 h1         1 EK8       0.019950
     41 H3           1.6290    -0.8900     1.9490 hc         1 EK8       0.019450
     42 H4           3.0640     0.0180     1.4390 hc         1 EK8       0.019450
     43 H5           1.7750     1.2200     3.1990 hc         1 EK8       0.012200
     44 H6           1.8310     2.1310     1.6790 hc         1 EK8       0.012200
     45 H7          -0.4550     2.1410     2.5820 hc         1 EK8       0.019450
     46 H8          -0.4580     0.3690     2.6270 hc         1 EK8       0.019450
     47 H9          -0.1580     2.0840     0.1360 h1         1 EK8       0.019950
     48 H10         -1.6130     1.1900     0.6090 h1         1 EK8       0.019950
     49 H12          1.4470    -0.2250    -2.1970 ha         1 EK8       0.118000
     50 H13          0.5710    -0.4570    -4.4830 ha         1 EK8       0.116000
     51 H14         -3.4420    -0.3010    -2.9480 ha         1 EK8       0.116000
     52 H15         -3.9820    -0.5050    -4.6670 hn         1 EK8       0.180500
     53 H16         -3.5310     0.1360    -7.4110 h1         1 EK8       0.030200
     54 H17         -3.5320    -1.6240    -7.2320 h1         1 EK8       0.030200
     55 H18         -6.7650     2.8480    -5.5950 h1         1 EK8       0.001700
     56 H19         -6.8140     2.9700    -7.3590 h1         1 EK8       0.001700
     57 H20         -4.5810     4.0060    -5.5760 hc         1 EK8       0.020700
     58 H21         -4.6290     4.1280    -7.3400 hc         1 EK8       0.020700
     59 H22         -6.6590     5.3380    -5.4270 hc         1 EK8       0.000033
     60 H23         -5.3970     6.2300    -6.2880 hc         1 EK8       0.000033
     61 H24         -6.7080     5.4590    -7.1910 hc         1 EK8       0.000033
     62 H25         -8.0010     1.4490    -6.5460 ha         1 EK8       0.113000
     63 H26         -9.2350    -0.6810    -6.6590 ha         1 EK8       0.113000
     64 H27         -7.5860    -3.9830    -6.5130 hc         1 EK8       0.028200
     65 H28         -9.1020    -3.1160    -6.2320 hc         1 EK8       0.028200
     66 H29         -9.1920    -2.5910    -8.6860 hc         1 EK8       0.033700
     67 H30         -6.7260    -2.8310    -9.0610 hc         1 EK8       0.009700
     68 H31         -6.8960    -4.5780    -8.8400 hc         1 EK8       0.009700
     69 H32         -7.6390    -1.7210   -11.0180 ha         1 EK8       0.108500
     70 H33         -8.3040    -1.9530   -13.3810 ha         1 EK8       0.086000
     71 H34         -8.8450    -4.1780   -14.2960 ha         1 EK8       0.083000
     72 H35         -8.7140    -6.1710   -12.8520 ha         1 EK8       0.086000
     73 H36         -8.0450    -5.9400   -10.4900 ha         1 EK8       0.108500
     74 H37         -5.5450    -2.8160    -6.9120 ha         1 EK8       0.119000
     75 H11         -2.5540    -0.0690    -0.6660 ha         1 EK8       0.118000
@<TRIPOS>BOND
     1     1     2 1   
     2     1     6 1   
     3     1     8 1   
     4     2     3 1   
     5     2    39 1   
     6     2    40 1   
     7     3     4 1   
     8     3    41 1   
     9     3    42 1   
    10     4     5 1   
    11     4    43 1   
    12     4    44 1   
    13     5     6 1   
    14     5    45 1   
    15     5    46 1   
    16     6    47 1   
    17     6    48 1   
    18     7     8 ar  
    19     7    12 ar  
    20     7    75 1   
    21     8     9 ar  
    22     9    10 ar  
    23     9    49 1   
    24    10    11 ar  
    25    10    50 1   
    26    11    12 ar  
    27    11    13 1   
    28    12    51 1   
    29    13    14 2   
    30    13    15 1   
    31    15    16 1   
    32    15    52 1   
    33    16    17 1   
    34    16    53 1   
    35    16    54 1   
    36    17    18 ar  
    37    17    35 ar  
    38    18    19 1   
    39    18    23 ar  
    40    19    20 1   
    41    20    21 1   
    42    20    55 1   
    43    20    56 1   
    44    21    22 1   
    45    21    57 1   
    46    21    58 1   
    47    22    59 1   
    48    22    60 1   
    49    22    61 1   
    50    23    24 ar  
    51    23    62 1   
    52    24    25 ar  
    53    24    63 1   
    54    25    26 1   
    55    25    35 ar  
    56    26    27 1   
    57    26    64 1   
    58    26    65 1   
    59    27    28 1   
    60    27    36 1   
    61    27    66 1   
    62    28    29 1   
    63    28    67 1   
    64    28    68 1   
    65    29    30 ar  
    66    29    34 ar  
    67    30    31 ar  
    68    30    69 1   
    69    31    32 ar  
    70    31    70 1   
    71    32    33 ar  
    72    32    71 1   
    73    33    34 ar  
    74    33    72 1   
    75    34    73 1   
    76    35    74 1   
    77    36    37 1   
    78    36    38 1   
@<TRIPOS>SUBSTRUCTURE
     1 EK8         1 TEMP              0 ****  ****    0 ROOT
