@<TRIPOS>MOLECULE
molecule
   52    55     1     0     0
SMALL
bcc


@<TRIPOS>ATOM
      1 O2           0.0000     0.0000     0.0000 o          1 EK9      -0.603100
      2 C3           1.2170     0.0000     0.0000 c          1 EK9       0.704700
      3 N1           1.8900     0.0000     1.1680 ns         1 EK9      -0.577900
      4 C2           1.1570     0.0010     2.4360 c3         1 EK9       0.174000
      5 C19          2.0200    -0.6000     3.5160 ca         1 EK9      -0.097300
      6 C24          1.4620    -1.4430     4.4590 ca         1 EK9      -0.111500
      7 C23          2.2540    -1.9930     5.4490 ca         1 EK9      -0.127500
      8 C22          3.6040    -1.6990     5.4980 ca         1 EK9      -0.123000
      9 C21          4.1620    -0.8570     4.5550 ca         1 EK9      -0.127500
     10 C20          3.3710    -0.3110     3.5600 ca         1 EK9      -0.111500
     11 C1           0.7940     1.4380     2.8140 c3         1 EK9       0.125400
     12 O1           1.9880     2.1810     3.0680 oh         1 EK9      -0.616800
     13 C4           1.9510    -0.0070    -1.2700 cc         1 EK9      -0.206900
     14 C7           1.3950    -0.0090    -2.5170 cc         1 EK9      -0.066000
     15 C6           2.4560    -0.0160    -3.4440 cc         1 EK9      -0.251500
     16 C5           3.6290    -0.0190    -2.7220 cd         1 EK9      -0.113300
     17 N2           3.3210    -0.0080    -1.4110 na         1 EK9      -0.142100
     18 C8           2.3330    -0.0200    -4.9210 ca         1 EK9       0.564800
     19 C11          3.2650     0.6610    -5.7130 ca         1 EK9      -0.341900
     20 C12          4.4110     1.4100    -5.0840 c3         1 EK9      -0.038800
     21 C10          3.1100     0.6290    -7.0870 ca         1 EK9       0.463200
     22 N4           2.0930    -0.0370    -7.6090 nb         1 EK9      -0.741000
     23 C9           1.2240    -0.6740    -6.8350 cp         1 EK9       0.745500
     24 N3           1.3380    -0.6740    -5.5150 nb         1 EK9      -0.726000
     25 C13          0.0990    -1.4090    -7.4630 cp         1 EK9      -0.145500
     26 C18         -0.0370    -1.4270    -8.8500 ca         1 EK9      -0.084000
     27 C17         -1.0850    -2.1120    -9.4290 ca         1 EK9      -0.145500
     28 C16         -2.0000    -2.7810    -8.6350 ca         1 EK9      -0.112000
     29 C15         -1.8690    -2.7670    -7.2590 ca         1 EK9      -0.145500
     30 C14         -0.8220    -2.0890    -6.6690 ca         1 EK9      -0.084000
     31 H6           2.8910    -0.0030     1.1690 hn         1 EK9       0.312500
     32 H1           0.2520    -0.5850     2.3300 h1         1 EK9       0.093700
     33 H22          0.4040    -1.6730     4.4210 ha         1 EK9       0.132000
     34 H21          1.8170    -2.6530     6.1880 ha         1 EK9       0.131000
     35 H20          4.2230    -2.1290     6.2750 ha         1 EK9       0.130000
     36 H19          5.2210    -0.6290     4.5910 ha         1 EK9       0.131000
     37 H18          3.8080     0.3490     2.8210 ha         1 EK9       0.132000
     38 H4           0.1770     1.4310     3.7050 h1         1 EK9       0.038200
     39 H5           0.2470     1.8980     2.0000 h1         1 EK9       0.038200
     40 H3           1.7620     3.0460     3.3690 ho         1 EK9       0.405000
     41 H8           0.3370    -0.0050    -2.7500 ha         1 EK9       0.182000
     42 H7           4.6300    -0.0240    -3.1380 h4         1 EK9       0.177000
     43 H2           3.9820    -0.0070    -0.6590 hn         1 EK9       0.297700
     44 H12          5.1760     0.7070    -4.7760 hc         1 EK9       0.044700
     45 H10          4.8270     2.1040    -5.8040 hc         1 EK9       0.044700
     46 H11          4.0540     1.9560    -4.2190 hc         1 EK9       0.044700
     47 H9           3.8130     1.1450    -7.7300 h4         1 EK9       0.028100
     48 H17          0.6790    -0.9030    -9.4720 ha         1 EK9       0.153500
     49 H16         -1.1920    -2.1260   -10.5070 ha         1 EK9       0.131500
     50 H15         -2.8230    -3.3160    -9.0940 ha         1 EK9       0.128000
     51 H14         -2.5870    -3.2940    -6.6420 ha         1 EK9       0.131500
     52 H13         -0.7210    -2.0790    -5.5900 ha         1 EK9       0.153500
@<TRIPOS>BOND
     1    20    19 1
     2     8     9 ar
     3     8     7 ar
     4    21    19 ar
     5    21    22 ar
     6    19    18 ar
     7     9    10 ar
     8     7     6 ar
     9     1     2 2
    10    22    23 ar
    11    10     5 ar
    12    14    15 1
    13    14    13 2
    14     6     5 ar
    15    18    15 1
    16    18    24 ar
    17     5     4 1
    18     2    13 1
    19     2     3 1
    20    15    16 2
    21    13    17 1
    22    23    24 ar
    23    23    25 1
    24     4     3 1
    25     4    11 1
    26    30    25 ar
    27    30    29 ar
    28    25    26 ar
    29    16    17 1
    30    29    28 ar
    31    11    12 1
    32    26    27 ar
    33    28    27 ar
    34     3    31 1
    35     4    32 1
    36     6    33 1
    37     7    34 1
    38     8    35 1
    39     9    36 1
    40    10    37 1
    41    11    38 1
    42    11    39 1
    43    12    40 1
    44    14    41 1
    45    16    42 1
    46    17    43 1
    47    20    44 1
    48    20    45 1
    49    20    46 1
    50    21    47 1
    51    26    48 1
    52    27    49 1
    53    28    50 1
    54    29    51 1
    55    30    52 1
@<TRIPOS>SUBSTRUCTURE
     1 EK9         1 TEMP              0 ****  ****    0 ROOT
