@<TRIPOS>MOLECULE
molecule
   25    25     1     0     0
SMALL
bcc


@<TRIPOS>ATOM
      1 C02          0.0000     0.0000     0.0000 c          1 EKA       0.831600
      2 C03          1.4950     0.0000     0.0000 c          1 EKA       0.584100
      3 C06          3.6330    -0.0000     1.1660 c3         1 EKA       0.114700
      4 C07          4.1440    -1.2480     0.4440 c3         1 EKA      -0.100400
      5 C08          5.6740    -1.2480     0.4440 c3         1 EKA      -0.077400
      6 C09          6.1840     0.0020    -0.2760 c3         1 EKA      -0.079400
      7 C10          5.6730     1.2510     0.4460 c3         1 EKA      -0.077400
      8 C11          4.1430     1.2500     0.4460 c3         1 EKA      -0.100400
      9 N04          2.1690     0.0000     1.1670 n          1 EKA      -0.374300
     10 O01         -0.6060     0.0040     1.0500 o          1 EKA      -0.800300
     11 O05          1.4610    -0.0010     2.3930 oh         1 EKA      -0.347100
     12 O12          2.1010     0.0010    -1.0520 o          1 EKA      -0.626100
     13 O13         -0.6730     0.0010    -1.1650 o          1 EKA      -0.800300
     14 H1           3.9990    -0.0010     2.1860 h1         1 EKA       0.038700
     15 H2           3.7840    -1.2450    -0.5780 hc         1 EKA       0.065450
     16 H3           3.7840    -2.1320     0.9560 hc         1 EKA       0.065450
     17 H4           6.0340    -2.1310    -0.0700 hc         1 EKA       0.027950
     18 H5           6.0340    -1.2460     1.4660 hc         1 EKA       0.027950
     19 H6           7.2670     0.0020    -0.2730 hc         1 EKA       0.035700
     20 H7           5.8200     0.0030    -1.2970 hc         1 EKA       0.035700
     21 H8           6.0330     1.2480     1.4680 hc         1 EKA       0.027950
     22 H9           6.0330     2.1350    -0.0660 hc         1 EKA       0.027950
     23 H10          3.7820     2.1330     0.9600 hc         1 EKA       0.065450
     24 H11          3.7830     1.2480    -0.5760 hc         1 EKA       0.065450
     25 H12          1.5960    -0.8240     2.8330 ho         1 EKA       0.369000
@<TRIPOS>BOND
     1    10     1 1
     2    12     2 2
     3     1     2 1
     4     1    13 1
     5     2     9 1
     6    11     9 1
     7     9     3 1
     8     3     4 1
     9     3     8 1
    10     4     5 1
    11     8     7 1
    12     5     6 1
    13     7     6 1
    14     3    14 1
    15     4    15 1
    16     4    16 1
    17     5    17 1
    18     5    18 1
    19     6    19 1
    20     6    20 1
    21     7    21 1
    22     7    22 1
    23     8    23 1
    24     8    24 1
    25    11    25 1
@<TRIPOS>SUBSTRUCTURE
     1 EKA         1 TEMP              0 ****  ****    0 ROOT
