@<TRIPOS>MOLECULE
molecule
   47    48     1     0     0
SMALL
bcc


@<TRIPOS>ATOM
      1 N1           0.0000     0.0000     0.0000 nb         1 EKB      -0.878000
      2 C2           1.3250     0.0000     0.0000 ca         1 EKB       1.005900
      3 N3           2.0260     0.0000     1.1250 nb         1 EKB      -0.827000
      4 C4           1.4270    -0.0000     2.3040 ca         1 EKB       0.554600
      5 C5           0.0330     0.0000     2.3570 ca         1 EKB      -0.352600
      6 C6          -0.6800     0.0000     1.1410 ca         1 EKB       0.837200
      7 C1A          2.5160     1.4420     4.0030 c3         1 EKB      -0.088100
      8 C1B         -5.3970    -3.8390     5.2130 c3         1 EKB       0.093700
      9 C1C         -4.9830     3.1290     6.6460 c3         1 EKB       0.093700
     10 C1D         -8.0680    -0.1750     6.8680 c3         1 EKB       0.101700
     11 N1E          1.9950     0.0000    -1.2100 nv         1 EKB      -0.961500
     12 N1F         -2.0630     0.0010     1.1360 nv         1 EKB      -1.004500
     13 C1G         -1.2360     0.0100     4.6330 c1         1 EKB      -0.119100
     14 C1H         -0.6550     0.0000     3.6120 cg         1 EKB      -0.063000
     15 C1I         -3.9890    -1.4250     5.4350 ca         1 EKB      -0.198000
     16 C1J         -3.7610     0.7790     6.0160 ca         1 EKB      -0.198000
     17 C1K          2.2400    -0.0000     3.5730 c3         1 EKB      -0.102700
     18 C1L         -1.5620    -0.6740     5.8900 c3         1 EKB       0.023000
     19 O1O         -6.0270    -2.6600     5.3730 os         1 EKB      -0.281900
     20 O1P         -5.9700     2.0590     6.6710 os         1 EKB      -0.281900
     21 O1Q         -7.2070    -0.1490     5.7310 os         1 EKB      -0.237900
     22 C1S         -3.1840    -0.3680     6.0670 ca         1 EKB      -0.061300
     23 C1V         -5.2870    -1.6740     5.6590 ca         1 EKB       0.072100
     24 C1W         -5.2420     0.8860     6.0580 ca         1 EKB       0.072100
     25 C1Y         -6.1270    -0.3710     6.1650 ca         1 EKB       0.072100
     26 H1A          3.0780     1.9680     4.7650 hc         1 EKB       0.037367
     27 H1AA         2.7000     2.1110     3.1710 hc         1 EKB       0.037367
     28 H1AB         1.5140     1.8130     4.1840 hc         1 EKB       0.037367
     29 H1B         -4.7410    -3.6730     4.3660 h1         1 EKB       0.041367
     30 H1BA        -4.6240    -3.8360     5.9720 h1         1 EKB       0.041367
     31 H1BB        -6.0060    -4.6010     4.7410 h1         1 EKB       0.041367
     32 H1C         -4.3850     3.2950     5.7580 h1         1 EKB       0.041367
     33 H1CA        -5.5970     4.0100     6.7860 h1         1 EKB       0.041367
     34 H1CB        -4.3300     3.1570     7.5100 h1         1 EKB       0.041367
     35 H1D         -8.0240    -1.2530     6.9670 h1         1 EKB       0.047033
     36 H1DA        -7.7860     0.2390     7.8290 h1         1 EKB       0.047033
     37 H1DB        -9.0930    -0.1070     6.5270 h1         1 EKB       0.047033
     38 HN1E         1.7320    -0.0230    -2.1750 hn         1 EKB       0.421300
     39 HN1A         2.8470    -0.5240    -1.2160 hn         1 EKB       0.421300
     40 HN1F        -2.9190     0.0720     1.6480 hn         1 EKB       0.430300
     41 HN1B        -2.5190     0.1570     0.2590 hn         1 EKB       0.430300
     42 H1I         -3.5760    -2.4210     5.3300 ha         1 EKB       0.113500
     43 H1J         -3.2350     1.7240     6.0850 ha         1 EKB       0.113500
     44 H1K          1.8210    -0.6640     4.3200 hc         1 EKB       0.055700
     45 H1KA         2.9830    -0.7230     3.2590 hc         1 EKB       0.055700
     46 H1L         -1.5900    -1.5930     6.4640 hc         1 EKB       0.093200
     47 H1LA        -1.5370     0.1600     6.5810 hc         1 EKB       0.093200
@<TRIPOS>BOND
     1     2     1 ar
     2     6     1 ar
     3     3     2 ar
     4     2    11 1
     5     4     3 ar
     6    17     4 1
     7     4     5 ar
     8    14     5 1
     9     5     6 ar
    10     6    12 1
    11     7    17 1
    12     7    26 1
    13     7    27 1
    14     7    28 1
    15    19     8 1
    16     8    29 1
    17     8    30 1
    18     8    31 1
    19    20     9 1
    20     9    32 1
    21     9    33 1
    22     9    34 1
    23    10    21 1
    24    10    35 1
    25    10    36 1
    26    10    37 1
    27    11    38 1
    28    11    39 1
    29    12    40 1
    30    12    41 1
    31    18    13 1
    32    13    14 3
    33    23    15 ar
    34    15    22 ar
    35    15    42 1
    36    24    16 ar
    37    16    22 ar
    38    16    43 1
    39    17    44 1
    40    17    45 1
    41    22    18 1
    42    18    46 1
    43    18    47 1
    44    19    23 1
    45    20    24 1
    46    21    25 1
    47    25    23 ar
    48    25    24 ar
@<TRIPOS>SUBSTRUCTURE
     1 EKB         1 TEMP              0 ****  ****    0 ROOT
