@<TRIPOS>MOLECULE
molecule
   24    24     1     0     0
SMALL
bcc


@<TRIPOS>ATOM
      1 C02          0.0000     0.0000     0.0000 c          1 EKD       0.832600
      2 C03          1.4940     0.0000     0.0000 c          1 EKD       0.560100
      3 C05          3.6330    -0.0010     1.1690 c3         1 EKD       0.114700
      4 C06          4.1420     0.6100     2.4760 c3         1 EKD      -0.092400
      5 C07          5.6730     0.6090     2.4760 c3         1 EKD      -0.078400
      6 C08          6.1820    -0.8280     2.3510 c3         1 EKD      -0.080400
      7 C09          5.6730    -1.4390     1.0440 c3         1 EKD      -0.078400
      8 C10          4.1430    -1.4380     1.0430 c3         1 EKD      -0.092400
      9 N04          2.1680     0.0000     1.1680 ns         1 EKD      -0.592900
     10 O01         -0.6070     0.0060     1.0490 o          1 EKD      -0.815800
     11 O11          2.1020    -0.0010    -1.0500 o          1 EKD      -0.633100
     12 O12         -0.6730    -0.0000    -1.1650 o          1 EKD      -0.815800
     13 H1           3.9990     0.5840     0.3340 h1         1 EKD       0.069700
     14 H2           3.7830     1.6280     2.5620 hc         1 EKD       0.046450
     15 H3           3.7820     0.0220     3.3120 hc         1 EKD       0.046450
     16 H4           6.0330     1.0390     3.4030 hc         1 EKD       0.033950
     17 H5           6.0330     1.1920     1.6380 hc         1 EKD       0.033950
     18 H6           7.2650    -0.8270     2.3500 hc         1 EKD       0.029700
     19 H7           5.8170    -1.4130     3.1870 hc         1 EKD       0.029700
     20 H8           6.0330    -0.8510     0.2080 hc         1 EKD       0.033950
     21 H9           6.0320    -2.4570     0.9580 hc         1 EKD       0.033950
     22 H10          3.7830    -1.8680     0.1160 hc         1 EKD       0.046450
     23 H11          3.7830    -2.0220     1.8820 hc         1 EKD       0.046450
     24 H12          1.6670     0.0190     2.0340 hn         1 EKD       0.322500
@<TRIPOS>BOND
     1    10     1 1
     2    11     2 2
     3     1     2 1
     4     1    12 1
     5     2     9 1
     6     9     3 1
     7     3     4 1
     8     3     8 1
     9     4     5 1
    10     8     7 1
    11     5     6 1
    12     7     6 1
    13     3    13 1
    14     4    14 1
    15     4    15 1
    16     5    16 1
    17     5    17 1
    18     6    18 1
    19     6    19 1
    20     7    20 1
    21     7    21 1
    22     8    22 1
    23     8    23 1
    24     9    24 1
@<TRIPOS>SUBSTRUCTURE
     1 EKD         1 TEMP              0 ****  ****    0 ROOT
