@<TRIPOS>MOLECULE
EKE
   22    21     1     0     0
SMALL
bcc


@<TRIPOS>ATOM
      1 N           0.1260    0.3250   -0.4130 n3        1 EKE     -0.897800
      2 CA          1.5170    0.0100   -0.1250 c3        1 EKE      0.114500
      3 CB          1.8340   -0.1300    1.3730 c3        1 EKE     -0.108400
      4 CG          1.4600    1.0970    2.1660 c3        1 EKE     -0.204400
      5 CD          2.1420    1.0970    3.5500 c         1 EKE      0.910600
      6 OE1         3.3280    0.6680    3.6360 o         1 EKE     -0.847300
      7 OE2         1.4760    1.5460    4.5250 o         1 EKE     -0.847300
      8 C           1.9840   -1.2760   -0.8560 c3        1 EKE      0.149100
      9 O           3.4040   -1.3070   -0.9500 oh        1 EKE     -0.621800
     10 CMK         1.4760   -1.3730   -2.2830 c3        1 EKE     -0.077100
     11 HN1        -0.4640   -0.4000   -0.0480 hn        1 EKE      0.339800
     12 HN2        -0.1110    1.1790    0.0590 hn        1 EKE      0.339800
     13 HA          2.1320    0.8650   -0.5360 h1        1 EKE      0.062700
     14 HB1         1.3000   -1.0240    1.7890 hc        1 EKE      0.050200
     15 HB2         2.9350   -0.3060    1.5150 hc        1 EKE      0.050200
     16 HG1         0.3530    1.1590    2.3100 hc        1 EKE      0.021700
     17 HG2         1.7910    2.0210    1.6270 hc        1 EKE      0.021700
     18 H           1.6460   -2.1770   -0.2670 h1        1 EKE      0.022700
     19 HO          3.7580   -1.0850   -0.0800 ho        1 EKE      0.415000
     20 HMK1        1.6170   -0.4010   -2.8110 hc        1 EKE      0.035700
     21 HMK2        2.0420   -2.1640   -2.8320 hc        1 EKE      0.035700
     22 HMK3        0.3910   -1.6330   -2.2840 hc        1 EKE      0.035700
@<TRIPOS>BOND
     1    1    2 1
     2    1   11 1
     3    1   12 1
     4    2    3 1
     5    2    8 1
     6    2   13 1
     7    3    4 1
     8    3   14 1
     9    3   15 1
    10    4    5 1
    11    4   16 1
    12    4   17 1
    13    5    6 1
    14    5    7 1
    15    8    9 1
    16    8   10 1
    17    8   18 1
    18    9   19 1
    19   10   20 1
    20   10   21 1
    21   10   22 1
@<TRIPOS>SUBSTRUCTURE
     1 EKE         1 TEMP              0 ****  ****    0 ROOT
