@<TRIPOS>MOLECULE
molecule
   61    60     1     0     0
SMALL
bcc


@<TRIPOS>ATOM
      1 C19          0.0000     0.0000     0.0000 c3         1 EKG      -0.092100
      2 C8           8.1570    -0.0030     5.7740 c3         1 EKG      -0.082400
      3 C7           9.6870    -0.0030     5.7750 c3         1 EKG      -0.081400
      4 C15          1.5300     0.0000     0.0000 c3         1 EKG      -0.084400
      5 C9           7.6480    -0.0020     4.3310 c3         1 EKG      -0.081400
      6 C6          10.1960    -0.0040     7.2170 c3         1 EKG      -0.082400
      7 C21         17.9020    -0.0060    11.1930 c3         1 EKG       0.136400
      8 C14          2.0390     0.0000     1.4430 c3         1 EKG      -0.081400
      9 C10          6.1180    -0.0020     4.3300 c3         1 EKG      -0.082400
     10 C5          11.7270    -0.0040     7.2180 c3         1 EKG      -0.080400
     11 C13          3.5690    -0.0010     1.4440 c3         1 EKG      -0.082400
     12 C11          5.6090    -0.0020     2.8880 c3         1 EKG      -0.082400
     13 C4          12.2350    -0.0040     8.6610 c3         1 EKG      -0.083400
     14 C12          4.0790    -0.0010     2.8860 c3         1 EKG      -0.081400
     15 C3          13.7660    -0.0050     8.6620 c3         1 EKG      -0.072400
     16 C2          14.2740    -0.0050    10.1040 c3         1 EKG      -0.125400
     17 C24         20.0090    -0.1330    12.5290 c3         1 EKG       0.131400
     18 C22         18.4860    -0.0060    12.6060 c3         1 EKG       0.149100
     19 O19         16.3860    -0.0060     9.0590 o          1 EKG      -0.551000
     20 C1          15.7820    -0.0050    10.1050 c          1 EKG       0.632100
     21 O20         16.4520    -0.0060    11.2680 os         1 EKG      -0.427900
     22 O23         18.1420     1.2140    13.2650 oh         1 EKG      -0.591800
     23 H1          -0.3610    -0.8810     0.5170 hc         1 EKG       0.032367
     24 H2          -0.3610    -0.0070    -1.0210 hc         1 EKG       0.032367
     25 H3          -0.3610     0.8880     0.5050 hc         1 EKG       0.032367
     26 H4           7.7960    -0.8880     6.2830 hc         1 EKG       0.040700
     27 H5           7.7950     0.8810     6.2850 hc         1 EKG       0.040700
     28 H6          10.0490    -0.8870     5.2640 hc         1 EKG       0.041700
     29 H7          10.0480     0.8820     5.2650 hc         1 EKG       0.041700
     30 H8           1.8910     0.8850    -0.5110 hc         1 EKG       0.039700
     31 H9           1.8910    -0.8850    -0.5110 hc         1 EKG       0.039700
     32 H10          8.0090     0.8830     3.8220 hc         1 EKG       0.041700
     33 H11          8.0090    -0.8860     3.8200 hc         1 EKG       0.041700
     34 H12          9.8350     0.8800     7.7290 hc         1 EKG       0.040700
     35 H13          9.8350    -0.8890     7.7270 hc         1 EKG       0.040700
     36 H14         18.2360     0.8780    10.6640 h1         1 EKG       0.058700
     37 H15         18.2350    -0.8910    10.6640 h1         1 EKG       0.058700
     38 H16          1.6790     0.8850     1.9540 hc         1 EKG       0.040700
     39 H17          1.6770    -0.8840     1.9540 hc         1 EKG       0.040700
     40 H18          5.7560     0.8820     4.8410 hc         1 EKG       0.040700
     41 H19          5.7570    -0.8870     4.8400 hc         1 EKG       0.040700
     42 H20         12.0880     0.8800     6.7070 hc         1 EKG       0.044200
     43 H21         12.0880    -0.8890     6.7070 hc         1 EKG       0.044200
     44 H22          3.9300     0.8830     0.9330 hc         1 EKG       0.040700
     45 H23          3.9290    -0.8860     0.9330 hc         1 EKG       0.040700
     46 H24          5.9710     0.8820     2.3770 hc         1 EKG       0.040700
     47 H25          5.9700    -0.8870     2.3770 hc         1 EKG       0.040700
     48 H26         11.8740     0.8810     9.1710 hc         1 EKG       0.041200
     49 H27         11.8730    -0.8880     9.1710 hc         1 EKG       0.041200
     50 H28          3.7180     0.8830     3.3970 hc         1 EKG       0.040700
     51 H29          3.7170    -0.8850     3.3970 hc         1 EKG       0.040700
     52 H30         14.1280     0.8790     8.1510 hc         1 EKG       0.058700
     53 H31         14.1270    -0.8900     8.1510 hc         1 EKG       0.058700
     54 H32         13.9130    -0.8900    10.6150 hc         1 EKG       0.072200
     55 H33         13.9130     0.8790    10.6150 hc         1 EKG       0.072200
     56 H34         20.2690    -1.0140    11.9550 h1         1 EKG       0.032700
     57 H35         20.4210     0.7460    12.0490 h1         1 EKG       0.032700
     58 H36         18.0820    -0.8430    13.1640 h1         1 EKG       0.052700
     59 H37         17.6510     1.0220    14.0460 ho         1 EKG       0.412000
     60 H38         21.4650    -0.4500    13.7990 ho         1 EKG       0.407000
     61 O25         20.5450    -0.2500    13.8500 oh         1 EKG      -0.605800
@<TRIPOS>BOND
     1    61    17 1
     2    17    18 1
     3    18     7 1
     4    18    22 1
     5     7    21 1
     6    21    20 1
     7    20    19 2
     8    20    16 1
     9    16    15 1
    10    15    13 1
    11     1     4 1
    12    13    10 1
    13     4     8 1
    14    10     6 1
    15     8    11 1
    16     6     3 1
    17    11    14 1
    18    12    14 1
    19    12     9 1
    20     2     3 1
    21     2     5 1
    22     5     9 1
    23     1    23 1
    24     1    24 1
    25     1    25 1
    26     2    26 1
    27     2    27 1
    28     3    28 1
    29     3    29 1
    30     4    30 1
    31     4    31 1
    32     5    32 1
    33     5    33 1
    34     6    34 1
    35     6    35 1
    36     7    36 1
    37     7    37 1
    38     8    38 1
    39     8    39 1
    40     9    40 1
    41     9    41 1
    42    10    42 1
    43    10    43 1
    44    11    44 1
    45    11    45 1
    46    12    46 1
    47    12    47 1
    48    13    48 1
    49    13    49 1
    50    14    50 1
    51    14    51 1
    52    15    52 1
    53    15    53 1
    54    16    54 1
    55    16    55 1
    56    17    56 1
    57    17    57 1
    58    18    58 1
    59    22    59 1
    60    61    60 1
@<TRIPOS>SUBSTRUCTURE
     1 EKG         1 TEMP              0 ****  ****    0 ROOT
