@<TRIPOS>MOLECULE
EKH
   33    35     1     0     0
SMALL
bcc


@<TRIPOS>ATOM
      1 Cl           0.0000     0.0000     0.0000 cl         1 EKH       0.004600
      2 C10          1.7360     0.0000     0.0000 cc         1 EKH      -0.073800
      3 C2           2.6080     0.0000     1.1740 ca         1 EKH      -0.348400
      4 C            2.4040     0.0000     2.5630 ca         1 EKH       0.596200
      5 N3           1.1270     0.0000     3.0920 nv         1 EKH      -0.655500
      6 C4           2.5370    -0.0060    -1.0780 cd         1 EKH      -0.232100
      7 N2           3.8510    -0.0040    -0.6810 na         1 EKH       0.306900
      8 C3           3.9270    -0.0000     0.6850 ca         1 EKH       0.287800
      9 N1           4.9300    -0.0000     1.5610 nb         1 EKH      -0.617000
     10 C1           4.6940     0.0010     2.8540 ca         1 EKH       0.642900
     11 N            3.4720    -0.0010     3.3560 nb         1 EKH      -0.670000
     12 C5           5.0030    -0.0090    -1.5860 c3         1 EKH       0.143800
     13 O3           4.6140     0.4260    -2.9070 os         1 EKH      -0.383600
     14 C8           5.6040    -0.0740    -3.8220 c3         1 EKH       0.151100
     15 C9           4.9460    -0.4290    -5.1570 c3         1 EKH       0.219400
     16 O            4.4690     0.7640    -5.7830 oh         1 EKH      -0.577800
     17 C7           6.2180    -1.3380    -3.1880 c3         1 EKH       0.127100
     18 O1           7.6260    -1.1750    -3.0110 oh         1 EKH      -0.547800
     19 C6           5.5100    -1.4570    -1.8170 c3         1 EKH       0.129100
     20 O2           6.4340    -1.8410    -0.7970 oh         1 EKH      -0.535800
     21 H1           0.6700    -0.8670     3.2960 hn         1 EKH       0.281800
     22 H2           0.6690     0.8670     3.2960 hn         1 EKH       0.281800
     23 H3           2.1980    -0.0090    -2.1070 h4         1 EKH       0.162000
     24 H4           5.5350    -0.0000     3.5360 h5         1 EKH      -0.002900
     25 H5           5.8010     0.6150    -1.2020 h2         1 EKH       0.071700
     26 H6           6.3750     0.6730    -3.9720 h1         1 EKH       0.052700
     27 H7           4.1160    -1.1020    -4.9820 h1         1 EKH      -0.009300
     28 H8           5.6720    -0.9090    -5.8010 h1         1 EKH      -0.009300
     29 H9           4.1600     0.5610    -6.6510 ho         1 EKH       0.391000
     30 H10          6.0040    -2.2070    -3.7990 h1         1 EKH       0.010700
     31 H11          8.0850    -1.7930    -3.5560 ho         1 EKH       0.389000
     32 H12          4.6780    -2.1490    -1.8740 h1         1 EKH       0.021700
     33 H13          6.3910    -2.7740    -0.6690 ho         1 EKH       0.389000
@<TRIPOS>BOND
     1     1     2 1   
     2     2     3 1   
     3     2     6 2   
     4     3     4 ar  
     5     3     8 ar  
     6     4     5 1   
     7     4    11 ar  
     8     5    21 1   
     9     5    22 1   
    10     6     7 1   
    11     6    23 1   
    12     7     8 1   
    13     7    12 1   
    14     8     9 ar  
    15     9    10 ar  
    16    10    11 ar  
    17    10    24 1   
    18    12    13 1   
    19    12    19 1   
    20    12    25 1   
    21    13    14 1   
    22    14    15 1   
    23    14    17 1   
    24    14    26 1   
    25    15    16 1   
    26    15    27 1   
    27    15    28 1   
    28    16    29 1   
    29    17    18 1   
    30    17    19 1   
    31    17    30 1   
    32    18    31 1   
    33    19    20 1   
    34    19    32 1   
    35    20    33 1   
@<TRIPOS>SUBSTRUCTURE
     1 EKH         1 TEMP              0 ****  ****    0 ROOT
