@<TRIPOS>MOLECULE
EKJ
   54    57     1     0     0
SMALL
bcc


@<TRIPOS>ATOM
      1 C10          0.0000     0.0000     0.0000 cc         1 EKJ      -0.055800
      2 C11         -0.8470     0.0000    -1.2460 c3         1 EKJ       0.022600
      3 C12         -1.1290    -1.4210    -1.6630 ca         1 EKJ      -0.013300
      4 C01          3.8680     2.4370    -6.8590 c3         1 EKJ       0.259700
      5 C03          4.0200     3.0520    -4.5470 c3         1 EKJ       0.198400
      6 C04          3.2290     3.0520    -3.2360 c3         1 EKJ       0.037000
      7 C08          2.0360     0.0020    -1.2550 c3         1 EKJ      -0.238700
      8 C13         -0.3500    -2.0470    -2.5930 ca         1 EKJ      -0.117000
      9 C14         -0.6290    -3.3610    -2.9630 ca         1 EKJ      -0.196300
     10 C17         -2.4280    -3.4740    -1.5210 ca         1 EKJ      -0.219300
     11 C18         -3.4960    -4.1950    -0.9600 ca         1 EKJ      -0.104000
     12 C19         -4.2920    -3.6060    -0.0260 ca         1 EKJ       0.004000
     13 C20         -4.0660    -2.2940     0.3860 ca         1 EKJ      -0.011000
     14 C21         -3.0410    -1.5640    -0.1340 ca         1 EKJ      -0.091000
     15 C22         -2.2000    -2.1410    -1.1000 ca         1 EKJ      -0.019000
     16 C24          1.0020     0.0020     2.2570 ca         1 EKJ       0.044900
     17 C25          1.4640     0.0020     3.5710 ca         1 EKJ      -0.035000
     18 C26          2.8180     0.0010     3.8240 ca         1 EKJ       0.008000
     19 C27          3.7220    -0.0010     2.7710 ca         1 EKJ      -0.043000
     20 C28          3.2880    -0.0000     1.4790 ca         1 EKJ      -0.020000
     21 C29          1.9080     0.0000     1.1900 ca         1 EKJ      -0.327200
     22 N05          2.9780     1.6700    -2.8190 ns         1 EKJ      -0.116900
     23 N09          1.2800     0.0000     0.0000 na         1 EKJ       0.686800
     24 N15         -1.6300    -4.0270    -2.4410 na         1 EKJ       0.684900
     25 O02          3.2200     2.4830    -5.5850 os         1 EKJ      -0.443600
     26 O07          1.8870     2.3440    -1.0090 o          1 EKJ      -0.630100
     27 S23         -0.6260     0.0060     1.5860 ss         1 EKJ       0.039900
     28 H111        -0.3190     0.5110    -2.0420 hc         1 EKJ       0.076200
     29 H1          -1.7820     0.5110    -1.0480 hc         1 EKJ       0.076200
     30 H011         4.1170     3.4430    -7.1740 h1         1 EKJ      -0.001300
     31 H012         3.2030     1.9850    -7.5850 h1         1 EKJ      -0.001300
     32 H013         4.7730     1.8470    -6.7820 h1         1 EKJ      -0.001300
     33 H031         4.2820     4.0700    -4.8100 h1         1 EKJ       0.013200
     34 H032         4.9230     2.4660    -4.4250 h1         1 EKJ       0.013200
     35 H042         2.2850     3.5610    -3.3840 h1         1 EKJ       0.048700
     36 H041         3.8000     3.5620    -2.4700 h1         1 EKJ       0.048700
     37 H081         1.4650    -0.5090    -2.0210 h1         1 EKJ       0.078200
     38 H082         2.9800    -0.5080    -1.1080 h1         1 EKJ       0.078200
     39 H131         0.4850    -1.5220    -3.0420 ha         1 EKJ       0.146000
     40 H141        -0.0020    -3.8450    -3.7020 h4         1 EKJ       0.175000
     41 H163        -1.1430    -5.6890    -3.6140 h1         1 EKJ       0.072033
     42 H161        -1.7970    -6.0680    -2.0150 h1         1 EKJ       0.072033
     43 H162        -2.8700    -5.4810    -3.2940 h1         1 EKJ       0.072033
     44 H181        -3.6850    -5.2160    -1.2700 ha         1 EKJ       0.145000
     45 H191        -5.1140    -4.1660     0.4030 ha         1 EKJ       0.143000
     46 H201        -4.7140    -1.8490     1.1310 ha         1 EKJ       0.140000
     47 H211        -2.8760    -0.5450     0.1940 ha         1 EKJ       0.136000
     48 H251         0.7590     0.0040     4.3940 ha         1 EKJ       0.143000
     49 H261         3.1770     0.0010     4.8450 ha         1 EKJ       0.142000
     50 H271         4.7850    -0.0010     2.9790 ha         1 EKJ       0.142000
     51 H281         4.0080    -0.0020     0.6700 ha         1 EKJ       0.124000
     52 H051         3.3480     0.9100    -3.3560 hn         1 EKJ       0.181500
     53 C16         -1.8760    -5.4060    -2.8690 c3         1 EKJ      -0.101400
     54 C06          2.2940     1.4230    -1.6850 c          1 EKJ       0.532100
@<TRIPOS>BOND
     1     1     2 1   
     2     1    23 2   
     3     1    27 1   
     4     2     3 1   
     5     2    28 1   
     6     2    29 1   
     7     3     8 ar  
     8     3    15 ar  
     9     4    25 1   
    10     4    30 1   
    11     4    31 1   
    12     4    32 1   
    13     5     6 1   
    14     5    25 1   
    15     5    33 1   
    16     5    34 1   
    17     6    22 1   
    18     6    35 1   
    19     6    36 1   
    20     7    23 1   
    21     7    37 1   
    22     7    38 1   
    23     7    54 1   
    24     8     9 ar  
    25     8    39 1   
    26     9    24 1   
    27     9    40 1   
    28    10    11 ar  
    29    10    15 ar  
    30    10    24 2   
    31    11    12 ar  
    32    11    44 1   
    33    12    13 ar  
    34    12    45 1   
    35    13    14 ar  
    36    13    46 1   
    37    14    15 ar  
    38    14    47 1   
    39    16    17 ar  
    40    16    21 ar  
    41    16    27 1   
    42    17    18 ar  
    43    17    48 1   
    44    18    19 ar  
    45    18    49 1   
    46    19    20 ar  
    47    19    50 1   
    48    20    21 ar  
    49    20    51 1   
    50    21    23 1   
    51    22    52 1   
    52    22    54 1   
    53    24    53 1   
    54    26    54 2   
    55    41    53 1   
    56    42    53 1   
    57    43    53 1   
@<TRIPOS>SUBSTRUCTURE
     1 EKJ         1 TEMP              0 ****  ****    0 ROOT
