@<TRIPOS>MOLECULE
molecule
   54    57     1     0     0
SMALL
bcc


@<TRIPOS>ATOM
      1 C10          0.0000     0.0000     0.0000 cc         1 EKJ       0.133200
      2 C11         -0.8470     0.0000    -1.2460 c3         1 EKJ      -0.076400
      3 C12         -1.1290    -1.4210    -1.6630 ca         1 EKJ       0.025700
      4 C01          3.8680     2.4370    -6.8590 c3         1 EKJ       0.125700
      5 C03          4.0200     3.0520    -4.5470 c3         1 EKJ       0.117400
      6 C04          3.2290     3.0520    -3.2360 c3         1 EKJ       0.112000
      7 C08          2.0360     0.0020    -1.2550 c3         1 EKJ      -0.096700
      8 C13         -0.3500    -2.0470    -2.5930 ca         1 EKJ      -0.182000
      9 C14         -0.6290    -3.3610    -2.9630 ca         1 EKJ       0.022700
     10 C17         -2.4280    -3.4740    -1.5210 ca         1 EKJ       0.009700
     11 C18         -3.4960    -4.1950    -0.9600 ca         1 EKJ      -0.141000
     12 C19         -4.2920    -3.6060    -0.0260 ca         1 EKJ      -0.029000
     13 C20         -4.0660    -2.2940     0.3860 ca         1 EKJ      -0.070000
     14 C21         -3.0410    -1.5640    -0.1340 ca         1 EKJ      -0.110000
     15 C22         -2.2000    -2.1410    -1.1000 ca         1 EKJ      -0.063000
     16 C24          1.0020     0.0020     2.2570 ca         1 EKJ      -0.056100
     17 C25          1.4640     0.0020     3.5710 ca         1 EKJ      -0.064000
     18 C26          2.8180     0.0010     3.8240 ca         1 EKJ      -0.057000
     19 C27          3.7220    -0.0010     2.7710 ca         1 EKJ      -0.062000
     20 C28          3.2880    -0.0000     1.4790 ca         1 EKJ      -0.086000
     21 C29          1.9080     0.0000     1.1900 ca         1 EKJ      -0.079200
     22 N05          2.9780     1.6700    -2.8190 ns         1 EKJ      -0.546900
     23 N09          1.2800     0.0000     0.0000 na         1 EKJ       0.040800
     24 N15         -1.6300    -4.0270    -2.4410 na         1 EKJ       0.078900
     25 O02          3.2200     2.4830    -5.5850 os         1 EKJ      -0.451600
     26 O07          1.8870     2.3440    -1.0090 o          1 EKJ      -0.576100
     27 S23         -0.6260     0.0060     1.5860 ss         1 EKJ       0.219900
     28 H111        -0.3190     0.5110    -2.0420 hc         1 EKJ       0.120200
     29 H1          -1.7820     0.5110    -1.0480 hc         1 EKJ       0.120200
     30 H011         4.1170     3.4430    -7.1740 h1         1 EKJ       0.043700
     31 H012         3.2030     1.9850    -7.5850 h1         1 EKJ       0.043700
     32 H013         4.7730     1.8470    -6.7820 h1         1 EKJ       0.043700
     33 H031         4.2820     4.0700    -4.8100 h1         1 EKJ       0.050200
     34 H032         4.9230     2.4660    -4.4250 h1         1 EKJ       0.050200
     35 H042         2.2850     3.5610    -3.3840 h1         1 EKJ       0.079200
     36 H041         3.8000     3.5620    -2.4700 h1         1 EKJ       0.079200
     37 H081         1.4650    -0.5090    -2.0210 h1         1 EKJ       0.101200
     38 H082         2.9800    -0.5080    -1.1080 h1         1 EKJ       0.101200
     39 H131         0.4850    -1.5220    -3.0420 ha         1 EKJ       0.181000
     40 H141        -0.0020    -3.8450    -3.7020 h4         1 EKJ       0.212000
     41 H163        -1.1430    -5.6890    -3.6140 h1         1 EKJ       0.104033
     42 H161        -1.7970    -6.0680    -2.0150 h1         1 EKJ       0.104033
     43 H162        -2.8700    -5.4810    -3.2940 h1         1 EKJ       0.104033
     44 H181        -3.6850    -5.2160    -1.2700 ha         1 EKJ       0.176000
     45 H191        -5.1140    -4.1660     0.4030 ha         1 EKJ       0.187000
     46 H201        -4.7140    -1.8490     1.1310 ha         1 EKJ       0.181000
     47 H211        -2.8760    -0.5450     0.1940 ha         1 EKJ       0.153000
     48 H251         0.7590     0.0040     4.3940 ha         1 EKJ       0.175000
     49 H261         3.1770     0.0010     4.8450 ha         1 EKJ       0.184000
     50 H271         4.7850    -0.0010     2.9790 ha         1 EKJ       0.182000
     51 H281         4.0080    -0.0020     0.6700 ha         1 EKJ       0.159000
     52 H051         3.3480     0.9100    -3.3560 hn         1 EKJ       0.327500
     53 C16         -1.8760    -5.4060    -2.8690 c3         1 EKJ      -0.025400
     54 C06          2.2940     1.4230    -1.6850 c          1 EKJ       0.624100
@<TRIPOS>BOND
     1     1     2 1
     2     1    23 2
     3     1    27 1
     4     2     3 1
     5     3     8 ar
     6     3    15 ar
     7     4    25 1
     8     5     6 1
     9     5    25 1
    10     6    22 1
    11    54     7 1
    12    54    22 1
    13    54    26 2
    14     7    23 1
    15     8     9 ar
    16     9    24 1
    17    53    24 1
    18    10    11 ar
    19    10    15 ar
    20    10    24 2
    21    11    12 ar
    22    12    13 ar
    23    13    14 ar
    24    14    15 ar
    25    16    17 ar
    26    16    21 ar
    27    16    27 1
    28    17    18 ar
    29    18    19 ar
    30    19    20 ar
    31    20    21 ar
    32    21    23 1
    33     2    28 1
    34     2    29 1
    35     4    30 1
    36     4    31 1
    37     4    32 1
    38     5    33 1
    39     5    34 1
    40     6    35 1
    41     6    36 1
    42     7    37 1
    43     7    38 1
    44     8    39 1
    45     9    40 1
    46    53    41 1
    47    53    42 1
    48    53    43 1
    49    11    44 1
    50    12    45 1
    51    13    46 1
    52    14    47 1
    53    17    48 1
    54    18    49 1
    55    19    50 1
    56    20    51 1
    57    22    52 1
@<TRIPOS>SUBSTRUCTURE
     1 EKJ         1 TEMP              0 ****  ****    0 ROOT
