@<TRIPOS>MOLECULE
molecule
   44    47     1     0     0
SMALL
bcc


@<TRIPOS>ATOM
      1 C01          0.0000     0.0000     0.0000 c3         1 EKM      -0.022400
      2 C03          2.3950     0.0000     0.0000 ca         1 EKM       0.019700
      3 C04          3.6460     0.0000     0.6030 ca         1 EKM      -0.193000
      4 C05          3.7390    -0.0050     1.9930 ca         1 EKM       0.080200
      5 C06          5.0490    -0.0040     2.6680 ce         1 EKM      -0.111200
      6 C07          6.1660     0.0010     1.9500 c2         1 EKM      -0.136200
      7 C08          7.5060     0.0020     2.6410 c3         1 EKM      -0.080500
      8 C09          8.3290    -1.1590     2.1420 cc         1 EKM       0.132200
      9 C11          9.4910    -3.2830     1.6590 ca         1 EKM      -0.064100
     10 C12         10.0930    -4.5260     1.4720 ca         1 EKM      -0.064000
     11 C13         10.9870    -4.7090     0.4410 ca         1 EKM      -0.062000
     12 C14         11.2910    -3.6570    -0.4110 ca         1 EKM      -0.064000
     13 C15         10.7120    -2.4350    -0.2440 ca         1 EKM      -0.090000
     14 C16          9.7960    -2.2170     0.8050 ca         1 EKM      -0.092200
     15 C19          2.5300    -0.0110     2.7360 ca         1 EKM      -0.060000
     16 C20          2.5360    -0.0160     4.1360 ca         1 EKM      -0.091000
     17 C21          1.3540    -0.0200     4.8150 ca         1 EKM      -0.084000
     18 C22          0.1390    -0.0210     4.1330 ca         1 EKM      -0.030000
     19 C23          0.0980    -0.0160     2.7730 ca         1 EKM      -0.150000
     20 C24          1.2980    -0.0110     2.0380 ca         1 EKM       0.013700
     21 N02          1.2870    -0.0000     0.7020 na         1 EKM       0.063900
     22 N17          9.1210    -1.1000     1.1390 na         1 EKM       0.013800
     23 S10          8.3260    -2.7120     2.8490 ss         1 EKM       0.221900
     24 H1           0.1720     0.0080    -1.0700 h1         1 EKM       0.098700
     25 H2          -0.5590    -0.8880     0.2690 h1         1 EKM       0.098700
     26 H3          -0.5650     0.8810     0.2810 h1         1 EKM       0.098700
     27 H4           2.3320     0.0040    -1.0810 h4         1 EKM       0.204000
     28 H5           4.5440     0.0000    -0.0030 ha         1 EKM       0.177000
     29 H6           5.1010    -0.0080     3.7500 ha         1 EKM       0.164000
     30 H7           6.1150     0.0050     0.8680 ha         1 EKM       0.143000
     31 H8           7.3610    -0.0920     3.7100 hc         1 EKM       0.105700
     32 H9           8.0220     0.9300     2.4260 hc         1 EKM       0.105700
     33 H10          9.8570    -5.3480     2.1370 ha         1 EKM       0.174000
     34 H11         11.4560    -5.6750     0.2970 ha         1 EKM       0.183000
     35 H12         11.9960    -3.8090    -1.2200 ha         1 EKM       0.182000
     36 H13         10.9610    -1.6250    -0.9190 ha         1 EKM       0.162000
     37 H14         10.2450     0.1250    -0.1310 h1         1 EKM       0.093367
     38 H15          8.4920     0.2290    -0.3490 h1         1 EKM       0.093367
     39 H16          9.2550     0.9860     1.0560 h1         1 EKM       0.093367
     40 H17          3.4750    -0.0150     4.6770 ha         1 EKM       0.160000
     41 H18          1.3590    -0.0240     5.8990 ha         1 EKM       0.177000
     42 H19         -0.7880    -0.0240     4.6940 ha         1 EKM       0.181000
     43 H20         -0.8540    -0.0170     2.2570 ha         1 EKM       0.170000
     44 C18          9.2890     0.1410     0.3790 c3         1 EKM      -0.017400
@<TRIPOS>BOND
     1    44    22 1
     2    13    12 ar
     3    13    14 ar
     4    22    14 1
     5    22     8 2
     6     7     8 1
     7     7     6 1
     8    12    11 ar
     9    14     9 ar
    10     8    23 1
    11     6     5 2
    12    17    16 ar
    13    17    18 ar
    14    16    15 ar
    15    11    10 ar
    16     9    23 1
    17     9    10 ar
    18     5     4 1
    19    18    19 ar
    20    15     4 ar
    21    15    20 ar
    22     4     3 ar
    23    19    20 ar
    24    20    21 1
    25     3     2 ar
    26    21     2 2
    27    21     1 1
    28     1    24 1
    29     1    25 1
    30     1    26 1
    31     2    27 1
    32     3    28 1
    33     5    29 1
    34     6    30 1
    35     7    31 1
    36     7    32 1
    37    10    33 1
    38    11    34 1
    39    12    35 1
    40    13    36 1
    41    44    37 1
    42    44    38 1
    43    44    39 1
    44    16    40 1
    45    17    41 1
    46    18    42 1
    47    19    43 1
@<TRIPOS>SUBSTRUCTURE
     1 EKM         1 TEMP              0 ****  ****    0 ROOT
