@<TRIPOS>MOLECULE
molecule
   39    41     1     0     0
SMALL
bcc


@<TRIPOS>ATOM
      1 O            0.0000     0.0000     0.0000 os         1 EKO      -0.414600
      2 Cl1          4.1820     1.1410     0.4390 cl         1 EKO      -0.115400
      3 Cl2          3.4320    -0.0010     5.6650 cl         1 EKO      -0.110400
      4 Cl3         -6.5520     0.8720    -0.4230 cl         1 EKO      -0.110400
      5 CB           1.4290     0.0000     0.0000 c3         1 EKO       0.193400
      6 CG           1.9320     0.0000     1.4210 ca         1 EKO      -0.069300
      7 CZ           2.8540    -0.0010     4.0290 ca         1 EKO       0.039400
      8 CB2         -0.5810     0.7310    -1.0810 c3         1 EKO       0.184700
      9 CB3          1.9400    -1.2490    -0.7210 c3         1 EKO      -0.106700
     10 CD1          3.1860     0.5070     1.7110 ca         1 EKO       0.041400
     11 ND1          1.5540    -2.8100     1.2440 nc         1 EKO      -0.694000
     12 CD2          1.1370    -0.5000     2.4350 ca         1 EKO      -0.037000
     13 CD3         -2.6710     1.7950    -0.2090 ca         1 EKO      -0.098000
     14 CD4         -2.8590    -0.2300    -1.4740 ca         1 EKO      -0.098000
     15 CD5          0.6450    -3.4380    -0.6300 cd         1 EKO      -0.269600
     16 CE1          3.6470     0.5060     3.0150 ca         1 EKO      -0.124000
     17 CE2          1.5970    -0.5010     3.7390 ca         1 EKO      -0.128000
     18 NE2          0.3610    -4.3620     0.3370 na         1 EKO      -0.295900
     19 CE3         -4.0450     1.8280    -0.0570 ca         1 EKO      -0.126000
     20 CE4         -4.2330    -0.1970    -1.3230 ca         1 EKO      -0.126000
     21 CE5          0.9410    -3.9380     1.4800 cd         1 EKO       0.393400
     22 CG2         -2.0790     0.7660    -0.9160 ca         1 EKO      -0.086300
     23 CG4          1.3890    -2.4790    -0.0450 cc         1 EKO       0.327600
     24 CZ2         -4.8260     0.8310    -0.6140 ca         1 EKO       0.035400
     25 HB           1.7900     0.8850    -0.5110 h1         1 EKO       0.053700
     26 HB2         -0.3320     0.2480    -2.0190 h1         1 EKO       0.031200
     27 HB2A        -0.1940     1.7420    -1.0830 h1         1 EKO       0.031200
     28 HB3          1.6140    -1.2280    -1.7540 hc         1 EKO       0.059700
     29 HB3A         3.0220    -1.2700    -0.6840 hc         1 EKO       0.059700
     30 HD2          0.1530    -0.8920     2.2070 ha         1 EKO       0.161000
     31 HD3         -2.0590     2.5750     0.2270 ha         1 EKO       0.139500
     32 HD4         -2.3940    -1.0360    -2.0290 ha         1 EKO       0.139500
     33 HD5          0.3320    -3.4700    -1.6670 h4         1 EKO       0.172000
     34 HE1          4.6220     0.9190     3.2450 ha         1 EKO       0.153000
     35 HE2          0.9740    -0.8930     4.5330 ha         1 EKO       0.143000
     36 HNE2        -0.1760    -5.1990     0.2190 hn         1 EKO       0.297700
     37 HE3         -4.5090     2.6340     0.4980 ha         1 EKO       0.145000
     38 HE4         -4.8450    -0.9780    -1.7590 ha         1 EKO       0.145000
     39 HE5          0.9030    -4.4480     2.4350 h5         1 EKO       0.064100
@<TRIPOS>BOND
     1     1     5 1
     2     1     8 1
     3     2    10 1
     4     3     7 1
     5     4    24 1
     6     5     6 1
     7     5     9 1
     8     6    10 ar
     9     6    12 ar
    10     7    16 ar
    11     7    17 ar
    12     8    22 1
    13     9    23 1
    14    10    16 ar
    15    11    21 2
    16    11    23 1
    17    12    17 ar
    18    13    19 ar
    19    13    22 ar
    20    14    20 ar
    21    14    22 ar
    22    15    18 1
    23    15    23 2
    24    18    21 1
    25    19    24 ar
    26    20    24 ar
    27     5    25 1
    28     8    26 1
    29     8    27 1
    30     9    28 1
    31     9    29 1
    32    12    30 1
    33    13    31 1
    34    14    32 1
    35    15    33 1
    36    16    34 1
    37    17    35 1
    38    18    36 1
    39    19    37 1
    40    20    38 1
    41    21    39 1
@<TRIPOS>SUBSTRUCTURE
     1 EKO         1 TEMP              0 ****  ****    0 ROOT
