@<TRIPOS>MOLECULE
EKO
   39    41     1     0     0
SMALL
bcc


@<TRIPOS>ATOM
      1 O          -0.0040   -0.0220   -0.0070 os        1 EKO     -0.428600
      2 CL1         4.2720    1.0170    0.3880 cl        1 EKO     -0.090400
      3 CL2         3.2950    0.8080    5.6210 cl        1 EKO     -0.087400
      4 CL3        -6.5090    0.7240   -0.8160 cl        1 EKO     -0.093400
      5 CB          1.4310   -0.0810   -0.0180 c3        1 EKO      0.189400
      6 CG          1.9070    0.1420    1.3890 ca        1 EKO     -0.070300
      7 CZ          2.7700    0.5570    4.0240 ca        1 EKO      0.026400
      8 CB2        -0.5450    0.4970   -1.2230 c3        1 EKO      0.174700
      9 CB3         1.9170   -1.4110   -0.6020 c3        1 EKO     -0.111700
     10 CD1         3.1930    0.6410    1.6500 ca        1 EKO      0.031400
     11 ND1         2.2970   -3.6950    0.4380 nc        1 EKO     -0.660000
     12 CD2         1.0650   -0.1400    2.4720 ca        1 EKO     -0.084000
     13 CD3        -2.6520    0.6890    0.1450 ca        1 EKO     -0.109000
     14 CD4        -2.8150    0.4260   -2.2540 ca        1 EKO     -0.109000
     15 CD5         0.1430   -2.8960    0.5510 cd        1 EKO     -0.238600
     16 CE1         3.6300    0.8470    2.9630 ca        1 EKO     -0.122000
     17 CE2         1.4840    0.0640    3.7840 ca        1 EKO     -0.128000
     18 NE2         0.1840   -4.1580    1.1380 na        1 EKO     -0.322900
     19 CE3        -4.0410    0.7480    0.2380 ca        1 EKO     -0.126000
     20 CE4        -4.2040    0.4890   -2.1710 ca        1 EKO     -0.126000
     21 CE5         1.5090   -4.6050    1.0460 cd        1 EKO      0.382400
     22 CG2        -2.0320    0.5290   -1.0980 ca        1 EKO     -0.089300
     23 CG4         1.4580   -2.6140    0.1200 cc        1 EKO      0.295600
     24 CZ2        -4.8140    0.6490   -0.9220 ca        1 EKO      0.018400
     25 HB          1.8310    0.7510   -0.6720 h1        1 EKO      0.057700
     26 HB2        -0.2290   -0.1550   -2.0820 h1        1 EKO      0.042700
     27 HB2A       -0.1550    1.5400   -1.3900 h1        1 EKO      0.042700
     28 HB3         1.5490   -1.4770   -1.6630 hc        1 EKO      0.066200
     29 HB3A        3.0400   -1.3790   -0.6310 hc        1 EKO      0.066200
     30 HD2         0.0540   -0.5320    2.2710 ha        1 EKO      0.155000
     31 HD3        -2.0320    0.7620    1.0530 ha        1 EKO      0.145000
     32 HD4        -2.3340    0.2960   -3.2350 ha        1 EKO      0.145000
     33 HD5        -0.7600   -2.2910    0.4870 h4        1 EKO      0.191000
     34 HE1         4.6440    1.2330    3.1550 ha        1 EKO      0.162000
     35 HE2         0.8090   -0.1640    4.6220 ha        1 EKO      0.149000
     36 HNE2       -0.5750   -4.6400    1.5380 hn        1 EKO      0.299700
     37 HE3        -4.5230    0.8740    1.2190 ha        1 EKO      0.148000
     38 HE4        -4.8150    0.4110   -3.0830 ha        1 EKO      0.148000
     39 HE5         1.8360   -5.5760    1.4300 h5        1 EKO      0.060100
@<TRIPOS>BOND
     1    1    5 1   
     2    1    8 1   
     3    2   10 1   
     4    3    7 1   
     5    4   24 1   
     6    5    6 1   
     7    5    9 1   
     8    5   25 1   
     9    6   10 ar  
    10    6   12 ar  
    11    7   16 ar  
    12    7   17 ar  
    13    8   22 1   
    14    8   26 1   
    15    8   27 1   
    16    9   23 1   
    17    9   28 1   
    18    9   29 1   
    19   10   16 ar  
    20   11   21 2   
    21   11   23 1   
    22   12   17 ar  
    23   12   30 1   
    24   13   19 ar  
    25   13   22 ar  
    26   13   31 1   
    27   14   20 ar  
    28   14   22 ar  
    29   14   32 1   
    30   15   18 1   
    31   15   23 2   
    32   15   33 1   
    33   16   34 1   
    34   17   35 1   
    35   18   21 1   
    36   18   36 1   
    37   19   24 ar  
    38   19   37 1   
    39   20   24 ar  
    40   20   38 1   
    41   21   39 1   
@<TRIPOS>SUBSTRUCTURE
     1 EKO         1 TEMP              0 ****  ****    0 ROOT
