@<TRIPOS>MOLECULE
molecule
   73    77     1     0     0
SMALL
bcc


@<TRIPOS>ATOM
      1 C10          1.4650     0.0000     0.0000 c3         1 EKP       0.021000
      2 C13         -0.6730     0.4940    -1.0580 c          1 EKP       0.526700
      3 C17         -4.2130     0.0700    -0.0220 ca         1 EKP      -0.107000
      4 C20         -2.6080    -1.6370    -1.5320 ca         1 EKP      -0.092000
      5 C22         -6.0260    -1.4820    -2.7440 cc         1 EKP      -0.107300
      6 C28         -8.6790     0.7410    -2.8370 ca         1 EKP      -0.127500
      7 C01          3.5220     0.7690     3.0720 ca         1 EKP      -0.118300
      8 C02          2.8810     0.0080     4.0310 ca         1 EKP      -0.148000
      9 C03          1.7820    -0.7570     3.6850 ca         1 EKP      -0.136000
     10 C04          1.3250    -0.7610     2.3810 ca         1 EKP      -0.086000
     11 C05          1.9680     0.0000     1.4210 ca         1 EKP      -0.089300
     12 C06          3.0610     0.7700     1.7680 ca         1 EKP      -0.063000
     13 C07          4.7190     1.6030     3.4490 cx         1 EKP      -0.169400
     14 C08          5.9360     0.8740     4.0210 cx         1 EKP      -0.192900
     15 C09          5.0540     1.7270     4.9360 cx         1 EKP      -0.192900
     16 C12          1.9760    -1.2490    -0.7210 c3         1 EKP      -0.079100
     17 C14         -2.0680    -0.9560    -0.4430 ca         1 EKP      -0.050600
     18 C16         -2.8710    -0.1020     0.3120 ca         1 EKP      -0.136000
     19 C18         -4.7610    -0.6200    -1.1260 ca         1 EKP      -0.033200
     20 C19         -3.9700    -1.4620    -1.8710 ca         1 EKP      -0.095800
     21 C23         -4.7460    -1.9990    -2.8730 cd         1 EKP      -0.190400
     22 C27         -8.2430     0.5230    -1.5310 ca         1 EKP      -0.139300
     23 C29         -9.5550     1.7910    -3.1150 ca         1 EKP      -0.118500
     24 C30         -9.9940     2.6240    -2.0880 ca         1 EKP      -0.016300
     25 C31         -9.5590     2.4080    -0.7820 ca         1 EKP      -0.118500
     26 C32         -8.6830     1.3580    -0.5030 ca         1 EKP      -0.127500
     27 C33        -11.0790     3.7240    -2.3800 c3         1 EKP      -0.128700
     28 C34        -12.3180     3.4830    -1.4720 c3         1 EKP      -0.056100
     29 C35        -10.4870     5.1270    -2.0840 c3         1 EKP      -0.056100
     30 C36        -11.5050     3.6470    -3.8630 c          1 EKP       0.901600
     31 N11          0.0000     0.0000     0.0000 ns         1 EKP      -0.466900
     32 N21         -6.0350    -0.6370    -1.6720 na         1 EKP       0.009600
     33 O15         -0.2650     0.4850    -2.1710 o          1 EKP      -0.572100
     34 O37        -10.9520     4.3940    -4.7180 o          1 EKP      -0.837300
     35 O38        -12.4560     2.8910    -4.2060 o          1 EKP      -0.837300
     36 H1           1.8270     0.8840    -0.5110 h1         1 EKP       0.064700
     37 H2          -4.8360     0.7340     0.5650 ha         1 EKP       0.143000
     38 H3          -1.9980    -1.8260    -2.4070 ha         1 EKP       0.148000
     39 H4          -3.4650    -3.3620    -3.9610 hc         1 EKP       0.037367
     40 H5          -3.2610    -1.6630    -4.4110 hc         1 EKP       0.037367
     41 H6          -4.6830    -2.5590    -4.9620 hc         1 EKP       0.037367
     42 H7          -7.8970    -1.6300    -1.6650 h1         1 EKP       0.058200
     43 H8          -7.4270    -0.9240    -0.1130 h1         1 EKP       0.058200
     44 H10          3.2410     0.0090     5.0530 ha         1 EKP       0.117000
     45 H11          1.2730    -1.3460     4.4380 ha         1 EKP       0.129000
     46 H12          0.4770    -1.3770     2.1060 ha         1 EKP       0.151000
     47 H13          3.6170     1.2910     0.9980 ha         1 EKP       0.146000
     48 H14          5.2450     0.9420     4.1270 hc         1 EKP       0.255700
     49 H15          5.7190     0.1140     4.7620 hc         1 EKP       0.084450
     50 H16          6.7690     0.7500     3.3400 hc         1 EKP       0.084450
     51 H17          4.3180     1.3170     5.6170 hc         1 EKP       0.084450
     52 H18          5.6250     2.6050     5.2150 hc         1 EKP       0.084450
     53 H19          1.4590    -1.3560    -1.6670 hc         1 EKP       0.046367
     54 H20          3.0400    -1.1540    -0.8990 hc         1 EKP       0.046367
     55 H21          1.7890    -2.1220    -0.1060 hc         1 EKP       0.046367
     56 H22         -2.4620     0.3960     1.1830 ha         1 EKP       0.140000
     57 H26         -9.8930     1.9590    -4.1310 ha         1 EKP       0.153000
     58 H27         -9.8870     3.0640     0.0140 ha         1 EKP       0.153000
     59 H28         -8.3480     1.1880     0.5130 ha         1 EKP       0.115000
     60 H29        -13.1460     4.0880    -1.8220 hc         1 EKP       0.023200
     61 H30        -12.5950     2.4370    -1.5080 hc         1 EKP       0.023200
     62 H31        -12.0780     3.7580    -0.4520 hc         1 EKP       0.023200
     63 H32        -11.1690     5.8890    -2.4430 hc         1 EKP       0.023200
     64 H33        -10.3460     5.2420    -1.0170 hc         1 EKP       0.023200
     65 H34         -9.5330     5.2300    -2.5880 hc         1 EKP       0.023200
     66 H35         -0.5000     0.7990    -0.3360 hn         1 EKP       0.335500
     67 C24         -3.9820    -2.4280    -4.1470 c3         1 EKP      -0.015900
     68 C26         -7.4320    -0.7770    -1.1860 c3         1 EKP       0.086600
     69 C25         -6.7550    -2.7170    -3.3380 c3         1 EKP       0.016100
     70 H9          -8.3330     0.0980    -3.6380 ha         1 EKP       0.115000
     71 H23         -6.6000    -2.7460    -4.4100 hc         1 EKP       0.046033
     72 H24         -6.3580    -3.6200    -2.8910 hc         1 EKP       0.046033
     73 H25         -7.8150    -2.6450    -3.1290 hc         1 EKP       0.046033
@<TRIPOS>BOND
     1    34    30 1
     2    35    30 1
     3    30    27 1
     4    69     5 1
     5    23     6 ar
     6    23    24 ar
     7     6    22 ar
     8    27    24 1
     9    27    29 1
    10    27    28 1
    11    24    25 ar
    12    22    68 1
    13    22    26 ar
    14    68    32 1
    15    25    26 ar
    16     5    32 1
    17     5    21 2
    18    32    19 1
    19    21    67 1
    20    21    20 1
    21    19    20 ar
    22    19     3 ar
    23    20     4 ar
    24     3    18 ar
    25     4    17 ar
    26    18    17 ar
    27    17     2 1
    28     2    33 2
    29     2    31 1
    30    31     1 1
    31     1    16 1
    32     1    11 1
    33    11    12 ar
    34    11    10 ar
    35    12     7 ar
    36    10     9 ar
    37     7    13 1
    38     7     8 ar
    39     9     8 ar
    40    13    14 1
    41    13    15 1
    42    14    15 1
    43     1    36 1
    44     3    37 1
    45     4    38 1
    46    67    39 1
    47    67    40 1
    48    67    41 1
    49    68    42 1
    50    68    43 1
    51     6    70 1
    52     8    44 1
    53     9    45 1
    54    10    46 1
    55    12    47 1
    56    13    48 1
    57    14    49 1
    58    14    50 1
    59    15    51 1
    60    15    52 1
    61    16    53 1
    62    16    54 1
    63    16    55 1
    64    18    56 1
    65    69    71 1
    66    69    72 1
    67    69    73 1
    68    23    57 1
    69    25    58 1
    70    26    59 1
    71    28    60 1
    72    28    61 1
    73    28    62 1
    74    29    63 1
    75    29    64 1
    76    29    65 1
    77    31    66 1
@<TRIPOS>SUBSTRUCTURE
     1 EKP         1 TEMP              0 ****  ****    0 ROOT
