@<TRIPOS>MOLECULE
molecule
   32    31     1     0     0
SMALL
bcc


@<TRIPOS>ATOM
      1 C10          1.5300     0.0000     0.0000 c3         1 EKQ       0.087500
      2 C15          2.0320     0.0000     1.4210 c          1 EKQ       0.864600
      3 O01          6.7960    -1.5200    -6.3200 o          1 EKQ      -0.884550
      4 O03          4.8870    -1.7410    -5.2280 o          1 EKQ      -0.884550
      5 C04          6.7220    -2.8270    -4.2270 c3         1 EKQ      -0.148400
      6 C05          5.6780    -3.2310    -3.1830 c3         1 EKQ       0.087500
      7 N06          5.1890    -2.0310    -2.4910 n7         1 EKQ      -0.786700
      8 C07          3.8410    -2.2490    -1.9480 c3         1 EKQ       0.166800
      9 C08          3.3670    -0.9810    -1.2350 c3         1 EKQ       0.166800
     10 N09          2.0200    -1.1990    -0.6920 n7         1 EKQ      -0.786700
     11 C11          0.0000     0.0000     0.0000 c3         1 EKQ      -0.148400
     12 C12         -0.5020     0.1240    -1.4150 c          1 EKQ       0.890600
     13 O13         -1.8220     0.1460    -1.6590 o          1 EKQ      -0.884550
     14 O14          0.2820     0.2040    -2.3300 o          1 EKQ      -0.884550
     15 O16          1.7080     1.0070     2.2480 o          1 EKQ      -0.896800
     16 O17          2.7270    -0.9070     1.8160 o          1 EKQ      -0.896800
     17 C18          6.3030    -4.1670    -2.1830 c          1 EKQ       0.864600
     18 O19          6.3380    -3.8680    -1.0130 o          1 EKQ      -0.896800
     19 O20          6.8230    -5.3370    -2.5910 o          1 EKQ      -0.896800
     20 H1           1.8910     0.8840    -0.5110 h1         1 EKQ       0.056700
     21 H3           7.1470    -3.7160    -4.6760 hc         1 EKQ       0.020450
     22 H4           7.5070    -2.2530    -3.7490 hc         1 EKQ       0.020450
     23 H5           4.8500    -3.7270    -3.6740 h1         1 EKQ       0.056700
     24 H6           5.8150    -1.7960    -1.7470 hn         1 EKQ       0.336800
     25 H8           3.1590    -2.4860    -2.7560 h1         1 EKQ       0.026700
     26 H9           3.8650    -3.0720    -1.2430 h1         1 EKQ       0.026700
     27 H10          3.3430    -0.1590    -1.9400 h1         1 EKQ       0.026700
     28 H11          4.0480    -0.7450    -0.4270 h1         1 EKQ       0.026700
     29 H12          2.0390    -1.9690    -0.0530 hn         1 EKQ       0.336800
     30 H14         -0.3610    -0.9260     0.4320 hc         1 EKQ       0.020450
     31 H15         -0.3610     0.8370     0.5860 hc         1 EKQ       0.020450
     32 C02          6.0680    -1.9890    -5.2940 c          1 EKQ       0.890600
@<TRIPOS>BOND
     1    14    12 1
     2    12    11 1
     3    12    13 1
     4    11     1 1
     5    16     2 1
     6     1     2 1
     7     1    10 1
     8     2    15 1
     9    10     9 1
    10    18    17 1
    11     9     8 1
    12    17    19 1
    13    17     6 1
    14     8     7 1
    15     7     6 1
    16     6     5 1
    17     5    32 1
    18    32     4 1
    19    32     3 1
    20     1    20 1
    21     5    21 1
    22     5    22 1
    23     6    23 1
    24     7    24 1
    25     8    25 1
    26     8    26 1
    27     9    27 1
    28     9    28 1
    29    10    29 1
    30    11    30 1
    31    11    31 1
@<TRIPOS>SUBSTRUCTURE
     1 EKQ         1 TEMP              0 ****  ****    0 ROOT
