@<TRIPOS>MOLECULE
EKQ
   32    31     1     0     0
SMALL
bcc


@<TRIPOS>ATOM
      1 C10          1.5300     0.0000     0.0000 c3         1 EKQ       0.035500
      2 C15          2.0320     0.0000     1.4210 c          1 EKQ       0.963100
      3 O01          6.7960    -1.5200    -6.3200 o          1 EKQ      -0.931550
      4 O03          4.8870    -1.7410    -5.2280 o          1 EKQ      -0.931550
      5 C04          6.7220    -2.8270    -4.2270 c3         1 EKQ      -0.106900
      6 C05          5.6780    -3.2310    -3.1830 c3         1 EKQ       0.035500
      7 N06          5.1890    -2.0310    -2.4910 n7         1 EKQ      -0.563200
      8 C07          3.8410    -2.2490    -1.9480 c3         1 EKQ       0.137800
      9 C08          3.3670    -0.9810    -1.2350 c3         1 EKQ       0.137800
     10 N09          2.0200    -1.1990    -0.6920 n7         1 EKQ      -0.563200
     11 C11          0.0000     0.0000     0.0000 c3         1 EKQ      -0.106900
     12 C12         -0.5020     0.1240    -1.4150 c          1 EKQ       0.978600
     13 O13         -1.8220     0.1460    -1.6590 o          1 EKQ      -0.931550
     14 O14          0.2820     0.2040    -2.3300 o          1 EKQ      -0.931550
     15 O16          1.7080     1.0070     2.2480 o          1 EKQ      -0.940300
     16 O17          2.7270    -0.9070     1.8160 o          1 EKQ      -0.940300
     17 C18          6.3030    -4.1670    -2.1830 c          1 EKQ       0.963100
     18 O19          6.3380    -3.8680    -1.0130 o          1 EKQ      -0.940300
     19 O20          6.8230    -5.3370    -2.5910 o          1 EKQ      -0.940300
     20 H1           1.8910     0.8840    -0.5110 h1         1 EKQ       0.037700
     21 H3           7.1470    -3.7160    -4.6760 hc         1 EKQ       0.000700
     22 H4           7.5070    -2.2530    -3.7490 hc         1 EKQ       0.000700
     23 H5           4.8500    -3.7270    -3.6740 h1         1 EKQ       0.037700
     24 H6           5.8150    -1.7960    -1.7470 hn         1 EKQ       0.245800
     25 H8           3.1590    -2.4860    -2.7560 h1         1 EKQ       0.007200
     26 H9           3.8650    -3.0720    -1.2430 h1         1 EKQ       0.007200
     27 H10          3.3430    -0.1590    -1.9400 h1         1 EKQ       0.007200
     28 H11          4.0480    -0.7450    -0.4270 h1         1 EKQ       0.007200
     29 H12          2.0390    -1.9690    -0.0530 hn         1 EKQ       0.245800
     30 H14         -0.3610    -0.9260     0.4320 hc         1 EKQ       0.000700
     31 H15         -0.3610     0.8370     0.5860 hc         1 EKQ       0.000700
     32 C02          6.0680    -1.9890    -5.2940 c          1 EKQ       0.978600
@<TRIPOS>BOND
     1     1     2 1   
     2     1    10 1   
     3     1    11 1   
     4     1    20 1   
     5     2    15 1   
     6     2    16 1   
     7     3    32 1   
     8     4    32 1   
     9     5     6 1   
    10     5    21 1   
    11     5    22 1   
    12     5    32 1   
    13     6     7 1   
    14     6    17 1   
    15     6    23 1   
    16     7     8 1   
    17     7    24 1   
    18     8     9 1   
    19     8    25 1   
    20     8    26 1   
    21     9    10 1   
    22     9    27 1   
    23     9    28 1   
    24    10    29 1   
    25    11    12 1   
    26    11    30 1   
    27    11    31 1   
    28    12    13 1   
    29    12    14 1   
    30    17    18 1   
    31    17    19 1   
@<TRIPOS>SUBSTRUCTURE
     1 EKQ         1 TEMP              0 ****  ****    0 ROOT
