@<TRIPOS>MOLECULE
EKS
   79    82     1     0     0
SMALL
bcc


@<TRIPOS>ATOM
      1 C10          0.0000     0.0000     0.0000 c3         1 EKS       0.104100
      2 C13          3.2990     1.4310    -4.3970 ca         1 EKS      -0.122300
      3 C15          4.6490     3.3940    -4.6640 ca         1 EKS      -0.070000
      4 C17          2.3840     3.3810    -5.4500 ca         1 EKS       0.213100
      5 C20          1.5140     5.4040    -6.3440 c3         1 EKS       0.040800
      6 C21          2.6560     5.5710    -7.3120 c          1 EKS       0.951600
      7 C24          5.1680    -0.0010     2.4830 c          1 EKS       0.617700
      8 C28          8.4810     0.5960     3.9080 ca         1 EKS      -0.106300
      9 C01          4.5720     0.0000     1.1320 ca         1 EKS      -0.214600
     10 C02          5.4000     0.0000     0.0000 ca         1 EKS      -0.084000
     11 C03          4.8640     0.0010    -1.2530 ca         1 EKS      -0.103000
     12 C04          3.4810     0.0010    -1.4250 ca         1 EKS      -0.186200
     13 C05          2.6380     0.0010    -0.2970 ca         1 EKS      -0.117800
     14 C06          3.1890    -0.0050     0.9820 ca         1 EKS       0.034000
     15 C08          1.3560     0.0010    -2.1540 cc         1 EKS      -0.226300
     16 C09          1.2670     0.0000    -0.8160 cd         1 EKS      -0.157400
     17 C11          0.1830    -0.0040    -3.0990 c3         1 EKS       0.083100
     18 C12          3.1440     0.0100    -3.9220 c3         1 EKS       0.013600
     19 C14          4.5030     2.0890    -4.2280 ca         1 EKS      -0.157000
     20 C16          3.5900     4.0430    -5.2700 ca         1 EKS      -0.157000
     21 C18          2.2390     2.0750    -5.0070 ca         1 EKS      -0.165000
     22 C27          7.1000    -0.0040     3.9680 c3         1 EKS       0.082000
     23 C29          9.3140     0.3090     2.8420 ca         1 EKS      -0.091500
     24 C30         10.5790     0.8640     2.7840 ca         1 EKS      -0.103500
     25 C31         11.0110     1.7060     3.7910 ca         1 EKS      -0.078300
     26 C32         10.1780     1.9950     4.8550 ca         1 EKS      -0.103500
     27 C33          8.9130     1.4390     4.9140 ca         1 EKS      -0.091500
     28 C34          7.1900    -1.4410     4.4840 c3         1 EKS      -0.014100
     29 C35         12.3900     2.3110     3.7280 c3         1 EKS      -0.013700
     30 C36         12.5200     3.1540     2.4580 c3         1 EKS       0.004900
     31 C37         12.6150     3.1970     4.9540 c3         1 EKS       0.004900
     32 C38         13.4350     1.1930     3.7070 c3         1 EKS       0.004900
     33 C39          1.8190     6.1710    -5.0570 c3         1 EKS      -0.000100
     34 C40          0.2300     5.9530    -6.9720 c3         1 EKS      -0.000100
     35 N07          2.6710     0.0080    -2.5360 na         1 EKS       0.433600
     36 N26          6.5080    -0.0020     2.6270 ns         1 EKS      -0.215900
     37 O19          1.3410     4.0180    -6.0450 os         1 EKS      -0.299900
     38 O22          3.0020     6.7960    -7.7380 o          1 EKS      -0.875800
     39 O23          3.2620     4.6020    -7.7040 o          1 EKS      -0.875800
     40 O25          4.4510    -0.0010     3.4640 o          1 EKS      -0.671100
     41 H1          -0.6480    -0.7990    -0.3400 hc         1 EKS      -0.000300
     42 H2           0.2430    -0.1520     1.0450 hc         1 EKS      -0.000300
     43 H3          -0.5060     0.9510    -0.1180 hc         1 EKS      -0.000300
     44 H4           5.5930     3.9080    -4.5270 ha         1 EKS       0.093000
     45 H5           6.4770    -0.0010     0.1230 ha         1 EKS       0.092000
     46 H6           5.5160     0.0010    -2.1190 ha         1 EKS       0.107000
     47 H7           2.5500     0.1280     1.8470 ha         1 EKS       0.120000
     48 H8           0.4930    -0.3990    -4.0590 hc         1 EKS       0.013700
     49 H9          -0.1820     1.0080    -3.2260 hc         1 EKS       0.013700
     50 H10         -0.6070    -0.6240    -2.6910 hc         1 EKS       0.013700
     51 H11          2.4270    -0.5040    -4.5490 h1         1 EKS       0.032700
     52 H12          4.1010    -0.4960    -3.9780 h1         1 EKS       0.032700
     53 H13          5.3340     1.5820    -3.7540 ha         1 EKS       0.090000
     54 H14          3.7050     5.0640    -5.6130 ha         1 EKS       0.179000
     55 H15          1.2980     1.5560    -5.1470 ha         1 EKS       0.106000
     56 H16          6.4810     0.5820     4.6360 h1         1 EKS       0.057700
     57 H17          8.9760    -0.3520     2.0530 ha         1 EKS       0.107500
     58 H18         11.2320     0.6380     1.9500 ha         1 EKS       0.114000
     59 H19         10.5160     2.6560     5.6440 ha         1 EKS       0.114000
     60 H20          8.2600     1.6650     5.7480 ha         1 EKS       0.107500
     61 H21          7.8990    -1.4870     5.3020 hc         1 EKS       0.011033
     62 H22          6.2160    -1.7610     4.8320 hc         1 EKS       0.011033
     63 H23          7.5200    -2.0920     3.6840 hc         1 EKS       0.011033
     64 H24         12.5320     2.5030     1.5920 hc         1 EKS       0.007033
     65 H25         13.4410     3.7230     2.4950 hc         1 EKS       0.007033
     66 H26         11.6790     3.8330     2.3880 hc         1 EKS       0.007033
     67 H27         12.5240     2.5990     5.8530 hc         1 EKS       0.007033
     68 H28         11.8740     3.9870     4.9700 hc         1 EKS       0.007033
     69 H29         13.6060     3.6320     4.9090 hc         1 EKS       0.007033
     70 H30         14.4220     1.6190     3.8440 hc         1 EKS       0.007033
     71 H31         13.2300     0.4920     4.5070 hc         1 EKS       0.007033
     72 H32         13.3940     0.6780     2.7550 hc         1 EKS       0.007033
     73 H33          2.8570     6.4830    -5.0600 hc         1 EKS       0.006033
     74 H34          1.6380     5.5290    -4.2030 hc         1 EKS       0.006033
     75 H35          1.1800     7.0430    -4.9950 hc         1 EKS       0.006033
     76 H36          0.3470     7.0130    -7.1650 hc         1 EKS       0.006033
     77 H37          0.0330     5.4360    -7.9030 hc         1 EKS       0.006033
     78 H38         -0.5990     5.8000    -6.2920 hc         1 EKS       0.006033
     79 H39          7.0980     0.0180     1.8190 hn         1 EKS       0.189500
@<TRIPOS>BOND
     1     1    16 1   
     2     1    41 1   
     3     1    42 1   
     4     1    43 1   
     5     2    18 1   
     6     2    19 ar  
     7     2    21 ar  
     8     3    19 ar  
     9     3    20 ar  
    10     3    44 1   
    11     4    20 ar  
    12     4    21 ar  
    13     4    37 1   
    14     5     6 1   
    15     5    33 1   
    16     5    34 1   
    17     5    37 1   
    18     6    38 1   
    19     6    39 1   
    20     7     9 1   
    21     7    36 1   
    22     7    40 2   
    23     8    22 1   
    24     8    23 ar  
    25     8    27 ar  
    26     9    10 ar  
    27     9    14 ar  
    28    10    11 ar  
    29    10    45 1   
    30    11    12 ar  
    31    11    46 1   
    32    12    13 ar  
    33    12    35 1   
    34    13    14 ar  
    35    13    16 1   
    36    14    47 1   
    37    15    16 2   
    38    15    17 1   
    39    15    35 1   
    40    17    48 1   
    41    17    49 1   
    42    17    50 1   
    43    18    35 1   
    44    18    51 1   
    45    18    52 1   
    46    19    53 1   
    47    20    54 1   
    48    21    55 1   
    49    22    28 1   
    50    22    36 1   
    51    22    56 1   
    52    23    24 ar  
    53    23    57 1   
    54    24    25 ar  
    55    24    58 1   
    56    25    26 ar  
    57    25    29 1   
    58    26    27 ar  
    59    26    59 1   
    60    27    60 1   
    61    28    61 1   
    62    28    62 1   
    63    28    63 1   
    64    29    30 1   
    65    29    31 1   
    66    29    32 1   
    67    30    64 1   
    68    30    65 1   
    69    30    66 1   
    70    31    67 1   
    71    31    68 1   
    72    31    69 1   
    73    32    70 1   
    74    32    71 1   
    75    32    72 1   
    76    33    73 1   
    77    33    74 1   
    78    33    75 1   
    79    34    76 1   
    80    34    77 1   
    81    34    78 1   
    82    36    79 1   
@<TRIPOS>SUBSTRUCTURE
     1 EKS         1 TEMP              0 ****  ****    0 ROOT
