@<TRIPOS>MOLECULE
molecule
   79    82     1     0     0
SMALL
bcc


@<TRIPOS>ATOM
      1 C10          0.0000     0.0000     0.0000 c3         1 EKS      -0.010900
      2 C13          3.2990     1.4310    -4.3970 ca         1 EKS      -0.114300
      3 C15          4.6490     3.3940    -4.6640 ca         1 EKS      -0.108000
      4 C17          2.3840     3.3810    -5.4500 ca         1 EKS       0.193100
      5 C20          1.5140     5.4040    -6.3440 c3         1 EKS       0.032800
      6 C21          2.6560     5.5710    -7.3120 c          1 EKS       0.867600
      7 C24          5.1680    -0.0010     2.4830 c          1 EKS       0.686700
      8 C28          8.4810     0.5960     3.9080 ca         1 EKS      -0.096300
      9 C01          4.5720     0.0000     1.1320 ca         1 EKS      -0.197600
     10 C02          5.4000     0.0000     0.0000 ca         1 EKS      -0.100000
     11 C03          4.8640     0.0010    -1.2530 ca         1 EKS      -0.141000
     12 C04          3.4810     0.0010    -1.4250 ca         1 EKS      -0.007200
     13 C05          2.6380     0.0010    -0.2970 ca         1 EKS      -0.114800
     14 C06          3.1890    -0.0050     0.9820 ca         1 EKS      -0.011000
     15 C08          1.3560     0.0010    -2.1540 cc         1 EKS      -0.036300
     16 C09          1.2670     0.0000    -0.8160 cd         1 EKS      -0.160400
     17 C11          0.1830    -0.0040    -3.0990 c3         1 EKS      -0.031900
     18 C12          3.1440     0.0100    -3.9220 c3         1 EKS       0.099600
     19 C14          4.5030     2.0890    -4.2280 ca         1 EKS      -0.169000
     20 C16          3.5900     4.0430    -5.2700 ca         1 EKS      -0.146000
     21 C18          2.2390     2.0750    -5.0070 ca         1 EKS      -0.171000
     22 C27          7.1000    -0.0040     3.9680 c3         1 EKS       0.164000
     23 C29          9.3140     0.3090     2.8420 ca         1 EKS      -0.120500
     24 C30         10.5790     0.8640     2.7840 ca         1 EKS      -0.124000
     25 C31         11.0110     1.7060     3.7910 ca         1 EKS      -0.072300
     26 C32         10.1780     1.9950     4.8550 ca         1 EKS      -0.124000
     27 C33          8.9130     1.4390     4.9140 ca         1 EKS      -0.120500
     28 C34          7.1900    -1.4410     4.4840 c3         1 EKS      -0.104100
     29 C35         12.3900     2.3110     3.7280 c3         1 EKS      -0.023700
     30 C36         12.5200     3.1540     2.4580 c3         1 EKS      -0.080767
     31 C37         12.6150     3.1970     4.9540 c3         1 EKS      -0.080767
     32 C38         13.4350     1.1930     3.7070 c3         1 EKS      -0.080767
     33 C39          1.8190     6.1710    -5.0570 c3         1 EKS      -0.079100
     34 C40          0.2300     5.9530    -6.9720 c3         1 EKS      -0.079100
     35 N07          2.6710     0.0080    -2.5360 na         1 EKS      -0.047400
     36 N26          6.5080    -0.0020     2.6270 ns         1 EKS      -0.585900
     37 O19          1.3410     4.0180    -6.0450 os         1 EKS      -0.324900
     38 O22          3.0020     6.7960    -7.7380 o          1 EKS      -0.826800
     39 O23          3.2620     4.6020    -7.7040 o          1 EKS      -0.826800
     40 O25          4.4510    -0.0010     3.4640 o          1 EKS      -0.630100
     41 H1          -0.6480    -0.7990    -0.3400 hc         1 EKS       0.035033
     42 H2           0.2430    -0.1520     1.0450 hc         1 EKS       0.035033
     43 H3          -0.5060     0.9510    -0.1180 hc         1 EKS       0.035033
     44 H4           5.5930     3.9080    -4.5270 ha         1 EKS       0.121000
     45 H5           6.4770    -0.0010     0.1230 ha         1 EKS       0.115000
     46 H6           5.5160     0.0010    -2.1190 ha         1 EKS       0.131000
     47 H7           2.5500     0.1280     1.8470 ha         1 EKS       0.150000
     48 H8           0.4930    -0.3990    -4.0590 hc         1 EKS       0.051367
     49 H9          -0.1820     1.0080    -3.2260 hc         1 EKS       0.051367
     50 H10         -0.6070    -0.6240    -2.6910 hc         1 EKS       0.051367
     51 H11          2.4270    -0.5040    -4.5490 h1         1 EKS       0.058700
     52 H12          4.1010    -0.4960    -3.9780 h1         1 EKS       0.058700
     53 H13          5.3340     1.5820    -3.7540 ha         1 EKS       0.106000
     54 H14          3.7050     5.0640    -5.6130 ha         1 EKS       0.185000
     55 H15          1.2980     1.5560    -5.1470 ha         1 EKS       0.122000
     56 H16          6.4810     0.5820     4.6360 h1         1 EKS       0.083700
     57 H17          8.9760    -0.3520     2.0530 ha         1 EKS       0.130500
     58 H18         11.2320     0.6380     1.9500 ha         1 EKS       0.133000
     59 H19         10.5160     2.6560     5.6440 ha         1 EKS       0.133000
     60 H20          8.2600     1.6650     5.7480 ha         1 EKS       0.130500
     61 H21          7.8990    -1.4870     5.3020 hc         1 EKS       0.042700
     62 H22          6.2160    -1.7610     4.8320 hc         1 EKS       0.042700
     63 H23          7.5200    -2.0920     3.6840 hc         1 EKS       0.042700
     64 H24         12.5320     2.5030     1.5920 hc         1 EKS       0.036589
     65 H25         13.4410     3.7230     2.4950 hc         1 EKS       0.036589
     66 H26         11.6790     3.8330     2.3880 hc         1 EKS       0.036589
     67 H27         12.5240     2.5990     5.8530 hc         1 EKS       0.036589
     68 H28         11.8740     3.9870     4.9700 hc         1 EKS       0.036589
     69 H29         13.6060     3.6320     4.9090 hc         1 EKS       0.036589
     70 H30         14.4220     1.6190     3.8440 hc         1 EKS       0.036589
     71 H31         13.2300     0.4920     4.5070 hc         1 EKS       0.036589
     72 H32         13.3940     0.6780     2.7550 hc         1 EKS       0.036589
     73 H33          2.8570     6.4830    -5.0600 hc         1 EKS       0.034867
     74 H34          1.6380     5.5290    -4.2030 hc         1 EKS       0.034867
     75 H35          1.1800     7.0430    -4.9950 hc         1 EKS       0.034867
     76 H36          0.3470     7.0130    -7.1650 hc         1 EKS       0.034867
     77 H37          0.0330     5.4360    -7.9030 hc         1 EKS       0.034867
     78 H38         -0.5990     5.8000    -6.2920 hc         1 EKS       0.034867
     79 H39          7.0980     0.0180     1.8190 hn         1 EKS       0.318500
@<TRIPOS>BOND
     1    34     5 1
     2    39     6 1
     3    33     5 1
     4     5     6 1
     5     5    37 1
     6    17    15 1
     7     6    38 1
     8    37     4 1
     9    21     4 ar
    10    21     2 ar
    11    18     2 1
    12    18    35 1
    13     4    20 ar
    14    15    35 1
    15    15    16 2
    16     2    19 ar
    17    35    12 1
    18    20     3 ar
    19     1    16 1
    20    19     3 ar
    21    16    13 1
    22    12    13 ar
    23    12    11 ar
    24    13    14 ar
    25    11    10 ar
    26    14     9 ar
    27    10     9 ar
    28     9     7 1
    29     7    40 2
    30     7    36 1
    31    36    22 1
    32    22    28 1
    33    22     8 1
    34    23     8 ar
    35    23    24 ar
    36     8    27 ar
    37    24    25 ar
    38    27    26 ar
    39    25    26 ar
    40    25    29 1
    41    32    29 1
    42    29    30 1
    43    29    31 1
    44     1    41 1
    45     1    42 1
    46     1    43 1
    47     3    44 1
    48    10    45 1
    49    11    46 1
    50    14    47 1
    51    17    48 1
    52    17    49 1
    53    17    50 1
    54    18    51 1
    55    18    52 1
    56    19    53 1
    57    20    54 1
    58    21    55 1
    59    22    56 1
    60    23    57 1
    61    24    58 1
    62    26    59 1
    63    27    60 1
    64    28    61 1
    65    28    62 1
    66    28    63 1
    67    30    64 1
    68    30    65 1
    69    30    66 1
    70    31    67 1
    71    31    68 1
    72    31    69 1
    73    32    70 1
    74    32    71 1
    75    32    72 1
    76    33    73 1
    77    33    74 1
    78    33    75 1
    79    34    76 1
    80    34    77 1
    81    34    78 1
    82    36    79 1
@<TRIPOS>SUBSTRUCTURE
     1 EKS         1 TEMP              0 ****  ****    0 ROOT
