@<TRIPOS>MOLECULE
EKV
   69    70     1     0     0
SMALL
bcc


@<TRIPOS>ATOM
      1 C10          0.0000     0.0000     0.0000 c3         1 EKV      -0.050100
      2 C13          1.5850    -2.3950    -0.0790 c3         1 EKV       0.206700
      3 C15          5.6470     6.8360    -0.9180 c3         1 EKV      -0.116100
      4 C17         10.1520     5.9830    -3.5180 ca         1 EKV      -0.035000
      5 C20          7.8950     5.9500    -5.2020 ca         1 EKV      -0.189000
      6 C22         10.9500     4.8590    -7.2710 c3         1 EKV       0.242400
      7 C24         13.3580     6.2810    -8.5910 ca         1 EKV      -0.033200
      8 C26         14.7760     5.6500   -10.6310 ca         1 EKV      -0.149000
      9 C28         15.8870     6.1270    -8.6090 ca         1 EKV      -0.111000
     10 C01          8.1100     6.3990    -3.8080 ca         1 EKV      -0.001300
     11 C02          6.5550     6.6650    -3.2120 c3         1 EKV       0.090100
     12 N03          5.9890     5.5110    -2.5850 n3         1 EKV      -0.474600
     13 C04          4.4720     5.5210    -3.1170 c3         1 EKV       0.298900
     14 C05          3.6860     4.2020    -2.5180 c1         1 EKV      -0.141100
     15 C06          3.3030     3.4990    -1.7730 cg         1 EKV      -0.011000
     16 C07          2.3940     2.1620    -1.2580 cg         1 EKV       0.004000
     17 C08          2.0210     1.2020    -0.6940 c1         1 EKV      -0.142100
     18 C09          1.5310     0.0000     0.0000 c3         1 EKV       0.298900
     19 C11          2.0410     0.0000     1.4420 c3         1 EKV      -0.050100
     20 O12          2.0060    -1.1670    -0.6740 os         1 EKV      -0.391600
     21 C14          6.2870     5.6670    -1.2310 c3         1 EKV       0.194800
     22 C16          9.0700     6.5150    -2.8100 ca         1 EKV      -0.188000
     23 C18         10.5130     5.5220    -4.5400 ca         1 EKV      -0.209000
     24 C19          9.2730     5.4440    -5.6330 ca         1 EKV       0.145100
     25 O21          9.7540     5.1940    -6.7920 os         1 EKV      -0.289900
     26 Si1         11.5860     6.5860    -7.8480 Si         1 EKV      -0.203800
     27 C25         13.3580     5.9180    -9.9450 ca         1 EKV      -0.125300
     28 C27         15.7930     5.8480    -9.6690 ca         1 EKV      -0.068000
     29 C29         14.5610     6.4270    -7.7860 ca         1 EKV      -0.043000
     30 C30         12.0520     5.8030   -10.7900 c3         1 EKV      -0.015800
     31 C31         10.6080     7.2330    -9.0200 c3         1 EKV      -0.053600
     32 C32         11.6640     7.7950    -6.2310 c3         1 EKV      -0.053600
     33 H1          -0.0720    -0.3530    -1.0220 hc         1 EKV       0.019867
     34 H2          -0.3940    -0.7900     0.6280 hc         1 EKV       0.019867
     35 H3          -0.3970     0.9550     0.3210 hc         1 EKV       0.019867
     36 H4           0.5780    -2.3780     0.3210 h1         1 EKV      -0.005633
     37 H5           1.8660    -3.4100    -0.3300 h1         1 EKV      -0.005633
     38 H6           2.3100    -2.4210     0.7260 h1         1 EKV      -0.005633
     39 H7           4.5950     7.0630    -1.0420 hc         1 EKV       0.014700
     40 H8           5.5130     6.7630     0.1550 hc         1 EKV       0.014700
     41 H9           5.9290     7.8220    -1.2690 hc         1 EKV       0.014700
     42 H10         10.9120     6.2530    -2.7940 ha         1 EKV       0.046000
     43 H11          7.1630     5.9940    -5.9990 ha         1 EKV       0.151000
     44 H12         11.4320     4.6070    -6.3340 h1         1 EKV       0.048700
     45 H13         10.8720     4.2630    -8.1730 h1         1 EKV       0.048700
     46 H14         14.6040     5.5760   -11.6980 ha         1 EKV       0.135000
     47 H15         16.8580     6.2370    -8.1410 ha         1 EKV       0.099000
     48 H16          6.6280     7.6200    -2.7050 h1         1 EKV       0.005200
     49 H17          5.9730     7.1280    -4.0000 h1         1 EKV       0.005200
     50 H19          4.0990     6.3470    -2.5250 h1         1 EKV       0.014700
     51 H20          4.1310     5.7050    -4.1290 h1         1 EKV       0.014700
     52 H21          1.4710    -0.6810     2.0620 hc         1 EKV       0.019867
     53 H22          3.0720     0.1780     1.7210 hc         1 EKV       0.019867
     54 H23          1.5810     0.9120     1.8030 hc         1 EKV       0.019867
     55 H24          7.3400     5.6190    -0.9800 h1         1 EKV       0.040200
     56 H25          5.7500     4.9630    -0.6070 h1         1 EKV       0.040200
     57 H26          8.8700     7.1820    -1.9800 ha         1 EKV       0.160000
     58 H27         11.4310     5.2040    -5.0190 ha         1 EKV       0.147000
     59 H28         16.6060     5.6550   -10.3580 ha         1 EKV       0.064000
     60 H29         14.7540     6.4080    -6.7200 ha         1 EKV       0.115000
     61 H30         11.8850     6.8730   -10.8140 hc         1 EKV       0.049367
     62 H31         12.3640     5.4520   -11.7670 hc         1 EKV       0.049367
     63 H32         11.4820     5.4140    -9.9550 hc         1 EKV       0.049367
     64 H33         10.4550     6.6600    -9.9260 hc         1 EKV       0.038867
     65 H34          9.6660     7.6970    -8.7550 hc         1 EKV       0.038867
     66 H35         11.2500     7.9950    -9.4460 hc         1 EKV       0.038867
     67 H36         12.0700     8.7210    -6.6200 hc         1 EKV       0.038867
     68 H37         10.6600     8.0680    -5.9280 hc         1 EKV       0.038867
     69 H38         12.3100     7.3030    -5.5140 hc         1 EKV       0.038867
@<TRIPOS>BOND
     1     1    18 1   
     2     1    33 1   
     3     1    34 1   
     4     1    35 1   
     5     2    20 1   
     6     2    36 1   
     7     2    37 1   
     8     2    38 1   
     9     3    21 1   
    10     3    39 1   
    11     3    40 1   
    12     3    41 1   
    13     4    22 ar  
    14     4    23 ar  
    15     4    42 1   
    16     5    10 ar  
    17     5    24 ar  
    18     5    43 1   
    19     6    25 1   
    20     6    26 1   
    21     6    44 1   
    22     6    45 1   
    23     7    26 1   
    24     7    27 ar  
    25     7    29 ar  
    26     8    27 ar  
    27     8    28 ar  
    28     8    46 1   
    29     9    28 ar  
    30     9    29 ar  
    31     9    47 1   
    32    10    11 1   
    33    10    22 ar  
    34    11    12 1   
    35    11    48 1   
    36    11    49 1   
    37    12    13 1   
    38    12    21 1   
    39    13    14 1   
    40    13    50 1   
    41    13    51 1   
    42    14    15 3   
    43    15    16 1   
    44    16    17 3   
    45    17    18 1   
    46    18    19 1   
    47    18    20 1   
    48    19    52 1   
    49    19    53 1   
    50    19    54 1   
    51    21    55 1   
    52    21    56 1   
    53    22    57 1   
    54    23    24 ar  
    55    23    58 1   
    56    24    25 1   
    57    26    31 1   
    58    26    32 1   
    59    27    30 1   
    60    28    59 1   
    61    29    60 1   
    62    30    61 1   
    63    30    62 1   
    64    30    63 1   
    65    31    64 1   
    66    31    65 1   
    67    31    66 1   
    68    32    67 1   
    69    32    68 1   
    70    32    69 1   
@<TRIPOS>SUBSTRUCTURE
     1 EKV         1 TEMP              0 ****  ****    0 ROOT
