@<TRIPOS>MOLECULE
molecule
   69    70     1     0     0
SMALL
bcc


@<TRIPOS>ATOM
      1 C10          0.0000     0.0000     0.0000 c3         1 EKV      -0.125600
      2 C13          1.5850    -2.3950    -0.0790 c3         1 EKV       0.100700
      3 C15          5.6470     6.8360    -0.9180 c3         1 EKV      -0.187100
      4 C17         10.1520     5.9830    -3.5180 ca         1 EKV      -0.061000
      5 C20          7.8950     5.9500    -5.2020 ca         1 EKV      -0.210000
      6 C22         10.9500     4.8590    -7.2710 c3         1 EKV       0.038400
      7 C24         13.3580     6.2810    -8.5910 ca         1 EKV      -0.192200
      8 C26         14.7760     5.6500   -10.6310 ca         1 EKV      -0.173000
      9 C28         15.8870     6.1270    -8.6090 ca         1 EKV      -0.127000
     10 C01          8.1100     6.3990    -3.8080 ca         1 EKV      -0.000300
     11 C02          6.5550     6.6650    -3.2120 c3         1 EKV       0.117100
     12 N03          5.9890     5.5110    -2.5850 n3         1 EKV      -0.670600
     13 C04          4.4720     5.5210    -3.1170 c3         1 EKV       0.263900
     14 C05          3.6860     4.2020    -2.5180 c1         1 EKV      -0.105100
     15 C06          3.3030     3.4990    -1.7730 cg         1 EKV      -0.021000
     16 C07          2.3940     2.1620    -1.2580 cg         1 EKV      -0.032000
     17 C08          2.0210     1.2020    -0.6940 c1         1 EKV      -0.110100
     18 C09          1.5310     0.0000     0.0000 c3         1 EKV       0.258900
     19 C11          2.0410     0.0000     1.4420 c3         1 EKV      -0.125600
     20 O12          2.0060    -1.1670    -0.6740 os         1 EKV      -0.405600
     21 C14          6.2870     5.6670    -1.2310 c3         1 EKV       0.207800
     22 C16          9.0700     6.5150    -2.8100 ca         1 EKV      -0.209000
     23 C18         10.5130     5.5220    -4.5400 ca         1 EKV      -0.225000
     24 C19          9.2730     5.4440    -5.6330 ca         1 EKV       0.161100
     25 O21          9.7540     5.1940    -6.7920 os         1 EKV      -0.358900
     26 Si1         11.5860     6.5860    -7.8480 Si         1 EKV       0.487200
     27 C25         13.3580     5.9180    -9.9450 ca         1 EKV      -0.133300
     28 C27         15.7930     5.8480    -9.6690 ca         1 EKV      -0.085000
     29 C29         14.5610     6.4270    -7.7860 ca         1 EKV      -0.088000
     30 C30         12.0520     5.8030   -10.7900 c3         1 EKV      -0.070800
     31 C31         10.6080     7.2330    -9.0200 c3         1 EKV      -0.292600
     32 C32         11.6640     7.7950    -6.2310 c3         1 EKV      -0.292600
     33 H1          -0.0720    -0.3530    -1.0220 hc         1 EKV       0.050367
     34 H2          -0.3940    -0.7900     0.6280 hc         1 EKV       0.050367
     35 H3          -0.3970     0.9550     0.3210 hc         1 EKV       0.050367
     36 H4           0.5780    -2.3780     0.3210 h1         1 EKV       0.033700
     37 H5           1.8660    -3.4100    -0.3300 h1         1 EKV       0.033700
     38 H6           2.3100    -2.4210     0.7260 h1         1 EKV       0.033700
     39 H7           4.5950     7.0630    -1.0420 hc         1 EKV       0.036033
     40 H8           5.5130     6.7630     0.1550 hc         1 EKV       0.036033
     41 H9           5.9290     7.8220    -1.2690 hc         1 EKV       0.036033
     42 H10         10.9120     6.2530    -2.7940 ha         1 EKV       0.077000
     43 H11          7.1630     5.9940    -5.9990 ha         1 EKV       0.182000
     44 H12         11.4320     4.6070    -6.3340 h1         1 EKV       0.069700
     45 H13         10.8720     4.2630    -8.1730 h1         1 EKV       0.069700
     46 H14         14.6040     5.5760   -11.6980 ha         1 EKV       0.162000
     47 H15         16.8580     6.2370    -8.1410 ha         1 EKV       0.126000
     48 H16          6.6280     7.6200    -2.7050 h1         1 EKV       0.022200
     49 H17          5.9730     7.1280    -4.0000 h1         1 EKV       0.022200
     50 H19          4.0990     6.3470    -2.5250 h1         1 EKV       0.059200
     51 H20          4.1310     5.7050    -4.1290 h1         1 EKV       0.059200
     52 H21          1.4710    -0.6810     2.0620 hc         1 EKV       0.050367
     53 H22          3.0720     0.1780     1.7210 hc         1 EKV       0.050367
     54 H23          1.5810     0.9120     1.8030 hc         1 EKV       0.050367
     55 H24          7.3400     5.6190    -0.9800 h1         1 EKV       0.072700
     56 H25          5.7500     4.9630    -0.6070 h1         1 EKV       0.072700
     57 H26          8.8700     7.1820    -1.9800 ha         1 EKV       0.182000
     58 H27         11.4310     5.2040    -5.0190 ha         1 EKV       0.154000
     59 H28         16.6060     5.6550   -10.3580 ha         1 EKV       0.092000
     60 H29         14.7540     6.4080    -6.7200 ha         1 EKV       0.151000
     61 H30         11.8850     6.8730   -10.8140 hc         1 EKV       0.069367
     62 H31         12.3640     5.4520   -11.7670 hc         1 EKV       0.069367
     63 H32         11.4820     5.4140    -9.9550 hc         1 EKV       0.069367
     64 H33         10.4550     6.6600    -9.9260 hc         1 EKV       0.061700
     65 H34          9.6660     7.6970    -8.7550 hc         1 EKV       0.061700
     66 H35         11.2500     7.9950    -9.4460 hc         1 EKV       0.061700
     67 H36         12.0700     8.7210    -6.6200 hc         1 EKV       0.061700
     68 H37         10.6600     8.0680    -5.9280 hc         1 EKV       0.061700
     69 H38         12.3100     7.3030    -5.5140 hc         1 EKV       0.061700
@<TRIPOS>BOND
     1    31    26 1
     2    30    27 1
     3    26     7 1
     4    26     6 1
     5    26    32 1
     6    27     7 ar
     7    27     8 ar
     8    25    24 1
     9    25     6 1
    10    11    10 1
    11    11    12 1
    12     5    24 ar
    13     5    10 ar
    14     7    29 ar
    15     8    28 ar
    16    24    23 ar
    17    10    22 ar
    18    21    12 1
    19    21     3 1
    20    23     4 ar
    21    22     4 ar
    22    28     9 ar
    23    29     9 ar
    24    12    13 1
    25    13    14 1
    26    14    15 3
    27    15    16 1
    28    16    17 3
    29     1    18 1
    30    19    18 1
    31    17    18 1
    32    18    20 1
    33    20     2 1
    34     1    33 1
    35     1    34 1
    36     1    35 1
    37     2    36 1
    38     2    37 1
    39     2    38 1
    40     3    39 1
    41     3    40 1
    42     3    41 1
    43     4    42 1
    44     5    43 1
    45     6    44 1
    46     6    45 1
    47     8    46 1
    48     9    47 1
    49    11    48 1
    50    11    49 1
    51    13    50 1
    52    13    51 1
    53    19    52 1
    54    19    53 1
    55    19    54 1
    56    21    55 1
    57    21    56 1
    58    22    57 1
    59    23    58 1
    60    28    59 1
    61    29    60 1
    62    30    61 1
    63    30    62 1
    64    30    63 1
    65    31    64 1
    66    31    65 1
    67    31    66 1
    68    32    67 1
    69    32    68 1
    70    32    69 1
@<TRIPOS>SUBSTRUCTURE
     1 EKV         1 TEMP              0 ****  ****    0 ROOT
