@<TRIPOS>MOLECULE
EKZ
   26    26     1     0     0
SMALL
bcc


@<TRIPOS>ATOM
      1 CAA         0.0260   -0.0920   -0.0350 c3        1 EKZ     -0.086767
      2 CAL         1.5520   -0.0450   -0.0040 c3        1 EKZ     -0.007700
      3 CAB         2.0270   -0.0330    1.4470 c3        1 EKZ     -0.086767
      4 CAC         2.0800   -1.3120   -0.6670 c3        1 EKZ     -0.086767
      5 CAK         2.0270    1.2060   -0.6960 ca        1 EKZ     -0.059300
      6 CAH         1.6160    2.4490   -0.1930 ca        1 EKZ     -0.134000
      7 CAJ         2.0350    3.6330   -0.8060 ca        1 EKZ      0.111100
      8 OAE         1.5960    4.8170   -0.2610 oh        1 EKZ     -0.496100
      9 CAI         2.8760    3.5780   -1.9380 ca        1 EKZ      0.036100
     10 OAD         3.2470    4.7890   -2.4870 oh        1 EKZ     -0.518100
     11 CAF         3.2850    2.3420   -2.4390 ca        1 EKZ     -0.170000
     12 CAG         2.8610    1.1670   -1.8190 ca        1 EKZ     -0.129000
     13 H1         -0.3390   -0.0960   -1.0890 hc        1 EKZ      0.037367
     14 H2         -0.3360   -1.0180    0.4730 hc        1 EKZ      0.037367
     15 H3         -0.4060    0.7920    0.4900 hc        1 EKZ      0.037367
     16 H4          1.6170    0.8530    1.9880 hc        1 EKZ      0.037367
     17 H5          3.1410    0.0060    1.4880 hc        1 EKZ      0.037367
     18 H6          1.6810   -0.9580    1.9670 hc        1 EKZ      0.037367
     19 H7          3.1950   -1.3340   -0.6430 hc        1 EKZ      0.037367
     20 H8          1.7340   -1.3770   -1.7260 hc        1 EKZ      0.037367
     21 H9          1.7000   -2.2080   -0.1180 hc        1 EKZ      0.037367
     22 H10         0.9610    2.5160    0.6890 ha        1 EKZ      0.153000
     23 H11         1.9640    5.5430   -0.7890 ho        1 EKZ      0.436000
     24 H12         3.8160    4.6060   -3.2470 ho        1 EKZ      0.428000
     25 H13         3.9410    2.2950   -3.3210 ha        1 EKZ      0.133000
     26 H14         3.2000    0.2080   -2.2360 ha        1 EKZ      0.138000
@<TRIPOS>BOND
     1    1    2 1   
     2    1   13 1   
     3    1   14 1   
     4    1   15 1   
     5    2    3 1   
     6    2    4 1   
     7    2    5 1   
     8    3   16 1   
     9    3   17 1   
    10    3   18 1   
    11    4   19 1   
    12    4   20 1   
    13    4   21 1   
    14    5    6 ar  
    15    5   12 ar  
    16    6    7 ar  
    17    6   22 1   
    18    7    8 1   
    19    7    9 ar  
    20    8   23 1   
    21    9   10 1   
    22    9   11 ar  
    23   10   24 1   
    24   11   12 ar  
    25   11   25 1   
    26   12   26 1   
@<TRIPOS>SUBSTRUCTURE
     1 EKZ         1 TEMP              0 ****  ****    0 ROOT
