@<TRIPOS>MOLECULE
molecule
   26    26     1     0     0
SMALL
bcc


@<TRIPOS>ATOM
      1 CAA          0.0000     0.0000     0.0000 c3         1 EKZ      -0.080767
      2 CAL          1.5300     0.0000     0.0000 c3         1 EKZ      -0.023700
      3 CAB          2.0390     0.0000     1.4430 c3         1 EKZ      -0.080767
      4 CAC          2.0410    -1.2490    -0.7210 c3         1 EKZ      -0.080767
      5 CAK          2.0320     1.2310    -0.7100 ca         1 EKZ      -0.066300
      6 CAH          1.6970     2.4850    -0.2360 ca         1 EKZ      -0.146000
      7 CAJ          2.1570     3.6180    -0.8880 ca         1 EKZ       0.091100
      8 OAE          1.8290     4.8530    -0.4230 oh         1 EKZ      -0.512100
      9 CAI          2.9590     3.4880    -2.0190 ca         1 EKZ       0.084100
     10 OAD          3.4140     4.5960    -2.6620 oh         1 EKZ      -0.512100
     11 CAF          3.2910     2.2280    -2.4880 ca         1 EKZ      -0.153000
     12 CAG          2.8320     1.1020    -1.8300 ca         1 EKZ      -0.125000
     13 H1          -0.3610     0.2090    -1.0000 hc         1 EKZ       0.037478
     14 H2          -0.3610     0.7610     0.6810 hc         1 EKZ       0.037478
     15 H3          -0.3610    -0.9700     0.3190 hc         1 EKZ       0.037478
     16 H4           1.5270     0.7700     2.0070 hc         1 EKZ       0.037478
     17 H5           1.8460    -0.9660     1.8940 hc         1 EKZ       0.037478
     18 H6           3.1040     0.1960     1.4510 hc         1 EKZ       0.037478
     19 H7           3.1240    -1.2500    -0.7190 hc         1 EKZ       0.037478
     20 H8           1.6780    -2.1340    -0.2110 hc         1 EKZ       0.037478
     21 H9           1.6810    -1.2480    -1.7430 hc         1 EKZ       0.037478
     22 H10          1.0930     2.5830     0.6580 ha         1 EKZ       0.144000
     23 H11          0.9470     5.0620    -0.6820 ho         1 EKZ       0.422000
     24 H12          4.3350     4.7040    -2.4890 ho         1 EKZ       0.421000
     25 H13          3.9160     2.1250    -3.3670 ha         1 EKZ       0.140000
     26 H14          3.0920     0.1170    -2.1980 ha         1 EKZ       0.141000
@<TRIPOS>BOND
     1    10     9 1
     2    11     9 ar
     3    11    12 ar
     4     9     7 ar
     5    12     5 ar
     6     1     2 1
     7     7     8 1
     8     7     6 ar
     9     5     2 1
    10     5     6 ar
    11     2     3 1
    12     2     4 1
    13     1    13 1
    14     1    14 1
    15     1    15 1
    16     3    16 1
    17     3    17 1
    18     3    18 1
    19     4    19 1
    20     4    20 1
    21     4    21 1
    22     6    22 1
    23     8    23 1
    24    10    24 1
    25    11    25 1
    26    12    26 1
@<TRIPOS>SUBSTRUCTURE
     1 EKZ         1 TEMP              0 ****  ****    0 ROOT
