@<TRIPOS>MOLECULE
EL
   34    37     1     0     0
SMALL
bcc


@<TRIPOS>ATOM
      1 C1          0.0270    0.0680   -0.0260 ca        1 EL      -0.136000
      2 C2          1.4240    0.0360   -0.0040 ca        1 EL      -0.077000
      3 C3          2.1320    0.0000    1.1980 ca        1 EL      -0.135000
      4 C4          1.3930   -0.0130    2.3810 ca        1 EL      -0.009200
      5 C5         -0.0510    0.0000    2.3720 cp        1 EL      -0.091000
      6 C6         -0.7180    0.0560    1.1550 ca        1 EL      -0.067000
      7 N7          1.8520   -0.0290    3.7160 na        1 EL      -0.215500
      8 C8          0.7640   -0.0220    4.5660 ca        1 EL       0.142000
      9 C9         -0.4750   -0.0220    3.7670 cp        1 EL      -0.052000
     10 C10         0.7350   -0.0240    5.9670 ca        1 EL      -0.140300
     11 C11         1.9720   -0.0460    6.7810 c3        1 EL      -0.054800
     12 C12        -0.5270    0.0040    6.5850 ca        1 EL       0.058000
     13 C13        -1.7430    0.0020    5.8130 ca        1 EL      -0.130000
     14 C14        -1.7040   -0.0540    4.3810 ca        1 EL       0.032700
     15 C15        -2.9530   -0.1570    3.5930 c3        1 EL      -0.081800
     16 C16        -0.6540    0.0430    8.0120 cc        1 EL      -0.118000
     17 C17        -1.8870    0.1000    8.6120 cd        1 EL      -0.083300
     18 N18        -3.0430    0.1220    7.8480 na        1 EL      -0.121100
     19 C19        -2.9740    0.0760    6.5010 cc        1 EL       0.048700
     20 H1         -0.4980    0.1070   -0.9940 ha        1 EL       0.154000
     21 H2          1.9820    0.0450   -0.9550 ha        1 EL       0.157000
     22 H3          3.2320   -0.0150    1.2050 ha        1 EL       0.156000
     23 H6         -1.8160    0.1020    1.1070 ha        1 EL       0.145000
     24 HN7         2.8030   -0.0320    3.9870 hn        1 EL       0.324700
     25 H111        2.8950   -0.1170    6.1570 hc        1 EL       0.058033
     26 H112        2.0490    0.8870    7.3970 hc        1 EL       0.058033
     27 H113        1.9670   -0.9270    7.4730 hc        1 EL       0.058033
     28 H151       -3.3310    0.8640    3.3300 hc        1 EL       0.068700
     29 H152       -3.7530   -0.7090    4.1440 hc        1 EL       0.068700
     30 H153       -2.7690   -0.7200    2.6420 hc        1 EL       0.068700
     31 H16         0.2530    0.0310    8.6400 ha        1 EL       0.186000
     32 H17        -2.0240    0.1330    9.7100 h4        1 EL       0.199000
     33 H18        -3.9320    0.1790    8.3090 hn        1 EL       0.333700
     34 H19        -3.9400    0.1120    5.9530 h4        1 EL       0.196000
@<TRIPOS>BOND
     1    1    2 ar  
     2    1    6 ar  
     3    1   20 1   
     4    2    3 ar  
     5    2   21 1   
     6    3    4 ar  
     7    3   22 1   
     8    4    5 ar  
     9    4    7 1   
    10    5    6 ar  
    11    5    9 1   
    12    6   23 1   
    13    7    8 2   
    14    7   24 1   
    15    8    9 ar  
    16    8   10 ar  
    17    9   14 ar  
    18   10   11 1   
    19   10   12 ar  
    20   11   25 1   
    21   11   26 1   
    22   11   27 1   
    23   12   13 ar  
    24   12   16 1   
    25   13   14 ar  
    26   13   19 2   
    27   14   15 1   
    28   15   28 1   
    29   15   29 1   
    30   15   30 1   
    31   16   17 2   
    32   16   31 1   
    33   17   18 1   
    34   17   32 1   
    35   18   19 1   
    36   18   33 1   
    37   19   34 1   
@<TRIPOS>SUBSTRUCTURE
     1 EL          1 TEMP              0 ****  ****    0 ROOT
