@<TRIPOS>MOLECULE
molecule
   34    37     1     0     0
SMALL
bcc


@<TRIPOS>ATOM
      1 C1           0.0000     0.0000     0.0000 ca         1 EL       -0.136000
      2 C2           1.3860     0.0000     0.0000 ca         1 EL       -0.069000
      3 C3           2.0860     0.0000     1.1880 ca         1 EL       -0.140000
      4 C4           1.4040     0.0000     2.4000 ca         1 EL        0.009800
      5 C5           0.0020     0.0000     2.3980 cp         1 EL       -0.107000
      6 C6          -0.6940     0.0010     1.1920 ca         1 EL       -0.068000
      7 N7           1.8430     0.0010     3.7130 na         1 EL       -0.217500
      8 C8           0.7640     0.0010     4.5820 ca         1 EL        0.130000
      9 C9          -0.4220     0.0010     3.8130 cp         1 EL       -0.048000
     10 C10          0.6970     0.0020     5.9610 ca         1 EL       -0.127300
     11 C11          1.9610     0.0010     6.7810 c3         1 EL       -0.045800
     12 C12         -0.5500    -0.0040     6.5950 ca         1 EL        0.031000
     13 C13         -1.7430     0.0040     5.8210 ca         1 EL       -0.119000
     14 C14         -1.6620     0.0030     4.4220 ca         1 EL        0.014700
     15 C15         -2.9180     0.0030     3.5900 c3         1 EL       -0.063800
     16 C16         -0.6700     0.0050     7.9980 cc         1 EL       -0.090000
     17 C17         -1.9150     0.0070     8.5490 cd         1 EL       -0.111300
     18 N18         -3.0120     0.0070     7.8030 na         1 EL       -0.058100
     19 C19         -2.9780     0.0060     6.4910 cc         1 EL        0.030700
     20 H1          -0.5400    -0.0000    -0.9390 ha         1 EL        0.152000
     21 H2           1.9230    -0.0010    -0.9410 ha         1 EL        0.155000
     22 H3           3.1700    -0.0000     1.1770 ha         1 EL        0.147000
     23 H6          -1.7770     0.0010     1.1900 ha         1 EL        0.139000
     24 HN7          2.8030     0.0000     3.9950 hn         1 EL        0.320700
     25 H111         2.8190     0.0400     6.1210 hc         1 EL        0.056700
     26 H112         1.9690     0.8660     7.4340 hc         1 EL        0.056700
     27 H113         2.0050    -0.9020     7.3770 hc         1 EL        0.056700
     28 H151        -3.1570     1.0180     3.2960 hc         1 EL        0.063700
     29 H152        -3.7350    -0.4080     4.1700 hc         1 EL        0.063700
     30 H153        -2.7640    -0.6030     2.7050 hc         1 EL        0.063700
     31 H16          0.2120     0.0040     8.6280 ha         1 EL        0.187000
     32 H17         -2.0130     0.0080     9.6280 h4         1 EL        0.195000
     33 H18         -3.9020     0.0090     8.2590 hn         1 EL        0.328700
     34 H19         -3.9020     0.0060     5.9250 h4         1 EL        0.200000
@<TRIPOS>BOND
     1     1     2 ar
     2     1     6 ar
     3     1    20 1
     4     2     3 ar
     5     2    21 1
     6     3     4 ar
     7     3    22 1
     8     4     5 ar
     9     4     7 1
    10     5     6 ar
    11     5     9 1
    12     6    23 1
    13     7     8 2
    14     7    24 1
    15     8     9 ar
    16     8    10 ar
    17     9    14 ar
    18    10    11 1
    19    10    12 ar
    20    11    25 1
    21    11    26 1
    22    11    27 1
    23    12    13 ar
    24    12    16 1
    25    13    14 ar
    26    13    19 2
    27    14    15 1
    28    15    28 1
    29    15    29 1
    30    15    30 1
    31    16    17 2
    32    16    31 1
    33    17    18 1
    34    17    32 1
    35    18    19 1
    36    18    33 1
    37    19    34 1
@<TRIPOS>SUBSTRUCTURE
     1 EL          1 TEMP              0 ****  ****    0 ROOT
