@<TRIPOS>MOLECULE
molecule
   59    62     1     0     0
SMALL
bcc


@<TRIPOS>ATOM
      1 C01          0.0000     0.0000     0.0000 c3         1 EL1       0.106300
      2 N05          1.4650     0.0000     0.0000 ns         1 EL1      -0.590900
      3 C07          2.1390     0.0000     1.1670 c          1 EL1       0.673700
      4 O08          1.5310    -0.0010     2.2200 o          1 EL1      -0.587100
      5 C09          3.6120    -0.0010     1.1680 ca         1 EL1      -0.179600
      6 C10          4.3130    -0.0010    -0.0420 ca         1 EL1      -0.063000
      7 C12          5.6780    -0.0000    -0.0440 ca         1 EL1      -0.180000
      8 C14          6.3850    -0.0010     1.1600 cp         1 EL1       0.036000
      9 C15          5.7000    -0.0010     2.3740 ca         1 EL1      -0.232000
     10 C17          4.3160     0.0050     2.3820 ca         1 EL1       0.197100
     11 O18          3.6410     0.0060     3.5590 os         1 EL1      -0.267900
     12 C19          4.4190    -0.1260     4.7520 c3         1 EL1       0.124100
     13 C21          3.5560    -0.6910     5.9100 c3         1 EL1      -0.089400
     14 C24          4.2920    -0.1280     7.1510 c3         1 EL1       0.107000
     15 N27          4.7350     1.2180     6.7480 n          1 EL1      -0.493800
     16 C28          4.8430     1.2610     5.2820 c3         1 EL1       0.054000
     17 C31          4.9980     2.2420     7.5840 c          1 EL1       0.724700
     18 O32          4.9620     2.0680     8.7890 o          1 EL1      -0.592100
     19 C33          5.3260     3.5640     7.0450 cc         1 EL1      -0.112700
     20 C34          5.5010     4.7010     7.7820 cd         1 EL1      -0.080000
     21 C36          5.8040     5.8020     7.0200 cd         1 EL1      -0.140000
     22 C38          5.8750     5.5790     5.7010 cc         1 EL1      -0.008000
     23 Br           6.2730     6.9020     4.4090 br         1 EL1      -0.036100
     24 S40          5.5660     3.9400     5.3430 ss         1 EL1      -0.038800
     25 C41          7.8660    -0.0030     1.1480 cp         1 EL1      -0.082000
     26 C42          8.5730     0.9200     1.9170 ca         1 EL1      -0.093000
     27 C44          9.9530     0.9150     1.9020 ca         1 EL1      -0.146000
     28 C46         10.6400    -0.0030     1.1260 ca         1 EL1      -0.093000
     29 C48          9.9510    -0.9230     0.3590 ca         1 EL1      -0.185000
     30 C50          8.5640    -0.9340     0.3680 ca         1 EL1       0.160600
     31 N51          7.8660    -1.8620    -0.4040 nu         1 EL1      -0.768500
     32 S53          8.4720    -3.3890    -0.6130 s6         1 EL1       1.324900
     33 C54          8.5850    -4.0640     1.0670 c3         1 EL1      -0.241300
     34 O58          7.4680    -4.0650    -1.3560 o          1 EL1      -0.625300
     35 O59          9.7700    -3.1790    -1.1540 o          1 EL1      -0.625300
     36 H1          -0.3610     0.8830     0.5130 h1         1 EL1       0.042700
     37 H2          -0.3610    -0.8860     0.5080 h1         1 EL1       0.042700
     38 H3          -0.3610     0.0030    -1.0210 h1         1 EL1       0.042700
     39 H4           1.9660     0.0070    -0.8670 hn         1 EL1       0.310500
     40 H5           3.7710    -0.0000    -0.9800 ha         1 EL1       0.134000
     41 H6           6.2160    -0.0000    -0.9850 ha         1 EL1       0.139000
     42 H7           6.2490     0.0010     3.3080 ha         1 EL1       0.147000
     43 H8           5.2870    -0.7510     4.5840 h1         1 EL1       0.062700
     44 H9           3.5720    -1.7750     5.9100 hc         1 EL1       0.077200
     45 H10          2.5430    -0.3110     5.8570 hc         1 EL1       0.077200
     46 H11          5.1470    -0.7480     7.3940 h1         1 EL1       0.062700
     47 H12          3.6140    -0.0640     7.9930 h1         1 EL1       0.062700
     48 H13          4.1820     2.0230     4.8870 h1         1 EL1       0.062700
     49 H14          5.8670     1.4670     4.9940 h1         1 EL1       0.062700
     50 H15          5.4110     4.7300     8.8620 ha         1 EL1       0.177000
     51 H16          5.9720     6.7810     7.4530 ha         1 EL1       0.162000
     52 H17          8.0400     1.6410     2.5250 ha         1 EL1       0.138000
     53 H18         10.5010     1.6330     2.5000 ha         1 EL1       0.137000
     54 H19         11.7230     0.0020     1.1190 ha         1 EL1       0.140000
     55 H20         10.4950    -1.6400    -0.2440 ha         1 EL1       0.187000
     56 H21          7.0260    -1.5890    -0.8740 hn         1 EL1       0.473800
     57 H22          7.6680    -3.8510     1.6040 h1         1 EL1       0.101700
     58 H23          8.7330    -5.1360     1.0160 h1         1 EL1       0.101700
     59 H24          9.4200    -3.6080     1.5840 h1         1 EL1       0.101700
@<TRIPOS>BOND
     1    33    32 1
     2    23    22 1
     3    35    32 2
     4    32    34 2
     5    32    31 1
     6    22    24 1
     7    22    21 2
     8    24    19 1
     9    31    30 1
    10    21    20 1
    11    29    30 ar
    12    29    28 ar
    13    30    25 ar
    14    19    20 2
    15    19    17 1
    16    18    17 2
    17    28    27 ar
    18    17    15 1
    19    25     8 1
    20    25    26 ar
    21     8     7 ar
    22     8     9 ar
    23     7     6 ar
    24    15    16 1
    25    15    14 1
    26    27    26 ar
    27     9    10 ar
    28     6     5 ar
    29    16    12 1
    30     4     3 2
    31    10     5 ar
    32    10    11 1
    33    14    13 1
    34     5     3 1
    35    11    12 1
    36     3     2 1
    37    12    13 1
    38     2     1 1
    39     1    36 1
    40     1    37 1
    41     1    38 1
    42     2    39 1
    43     6    40 1
    44     7    41 1
    45     9    42 1
    46    12    43 1
    47    13    44 1
    48    13    45 1
    49    14    46 1
    50    14    47 1
    51    16    48 1
    52    16    49 1
    53    20    50 1
    54    21    51 1
    55    26    52 1
    56    27    53 1
    57    28    54 1
    58    29    55 1
    59    31    56 1
    60    33    57 1
    61    33    58 1
    62    33    59 1
@<TRIPOS>SUBSTRUCTURE
     1 EL1         1 TEMP              0 ****  ****    0 ROOT
