@<TRIPOS>MOLECULE
EL1
   59    62     1     0     0
SMALL
bcc


@<TRIPOS>ATOM
      1 C01          0.0000     0.0000     0.0000 c3         1 EL1       0.090300
      2 N05          1.4650     0.0000     0.0000 ns         1 EL1      -0.204900
      3 C07          2.1390     0.0000     1.1670 c          1 EL1       0.598700
      4 O08          1.5310    -0.0010     2.2200 o          1 EL1      -0.635100
      5 C09          3.6120    -0.0010     1.1680 ca         1 EL1      -0.201600
      6 C10          4.3130    -0.0010    -0.0420 ca         1 EL1      -0.034000
      7 C12          5.6780    -0.0000    -0.0440 ca         1 EL1      -0.165000
      8 C14          6.3850    -0.0010     1.1600 cp         1 EL1       0.052000
      9 C15          5.7000    -0.0010     2.3740 ca         1 EL1      -0.231000
     10 C17          4.3160     0.0050     2.3820 ca         1 EL1       0.217100
     11 O18          3.6410     0.0060     3.5590 os         1 EL1      -0.237900
     12 C19          4.4190    -0.1260     4.7520 c3         1 EL1       0.149100
     13 C21          3.5560    -0.6910     5.9100 c3         1 EL1      -0.034400
     14 C24          4.2920    -0.1280     7.1510 c3         1 EL1       0.062000
     15 N27          4.7350     1.2180     6.7480 n          1 EL1      -0.149800
     16 C28          4.8430     1.2610     5.2820 c3         1 EL1      -0.020000
     17 C31          4.9980     2.2420     7.5840 c          1 EL1       0.661700
     18 O32          4.9620     2.0680     8.7890 o          1 EL1      -0.640100
     19 C33          5.3260     3.5640     7.0450 cc         1 EL1      -0.071700
     20 C34          5.5010     4.7010     7.7820 cd         1 EL1      -0.037000
     21 C36          5.8040     5.8020     7.0200 cd         1 EL1      -0.126000
     22 C38          5.8750     5.5790     5.7010 cc         1 EL1       0.092000
     23 Br           6.2730     6.9020     4.4090 br         1 EL1      -0.038100
     24 S40          5.5660     3.9400     5.3430 ss         1 EL1      -0.194800
     25 C41          7.8660    -0.0030     1.1480 cp         1 EL1      -0.095000
     26 C42          8.5730     0.9200     1.9170 ca         1 EL1      -0.065000
     27 C44          9.9530     0.9150     1.9020 ca         1 EL1      -0.127000
     28 C46         10.6400    -0.0030     1.1260 ca         1 EL1      -0.061000
     29 C48          9.9510    -0.9230     0.3590 ca         1 EL1      -0.185000
     30 C50          8.5640    -0.9340     0.3680 ca         1 EL1       0.086600
     31 N51          7.8660    -1.8620    -0.4040 nu         1 EL1      -0.423500
     32 S53          8.4720    -3.3890    -0.6130 s6         1 EL1       0.951900
     33 C54          8.5850    -4.0640     1.0670 c3         1 EL1       0.016700
     34 O58          7.4680    -4.0650    -1.3560 o          1 EL1      -0.583300
     35 O59          9.7700    -3.1790    -1.1540 o          1 EL1      -0.583300
     36 H1          -0.3610     0.8830     0.5130 h1         1 EL1       0.009033
     37 H2          -0.3610    -0.8860     0.5080 h1         1 EL1       0.009033
     38 H3          -0.3610     0.0030    -1.0210 h1         1 EL1       0.009033
     39 H4           1.9660     0.0070    -0.8670 hn         1 EL1       0.173500
     40 H5           3.7710    -0.0000    -0.9800 ha         1 EL1       0.105000
     41 H6           6.2160    -0.0000    -0.9850 ha         1 EL1       0.118000
     42 H7           6.2490     0.0010     3.3080 ha         1 EL1       0.134000
     43 H8           5.2870    -0.7510     4.5840 h1         1 EL1       0.031700
     44 H9           3.5720    -1.7750     5.9100 hc         1 EL1       0.041200
     45 H10          2.5430    -0.3110     5.8570 hc         1 EL1       0.041200
     46 H11          5.1470    -0.7480     7.3940 h1         1 EL1       0.028700
     47 H12          3.6140    -0.0640     7.9930 h1         1 EL1       0.028700
     48 H13          4.1820     2.0230     4.8870 h1         1 EL1       0.047700
     49 H14          5.8670     1.4670     4.9940 h1         1 EL1       0.047700
     50 H15          5.4110     4.7300     8.8620 ha         1 EL1       0.143000
     51 H16          5.9720     6.7810     7.4530 ha         1 EL1       0.134000
     52 H17          8.0400     1.6410     2.5250 ha         1 EL1       0.110000
     53 H18         10.5010     1.6330     2.5000 ha         1 EL1       0.107000
     54 H19         11.7230     0.0020     1.1190 ha         1 EL1       0.106000
     55 H20         10.4950    -1.6400    -0.2440 ha         1 EL1       0.176000
     56 H21          7.0260    -1.5890    -0.8740 hn         1 EL1       0.367800
     57 H22          7.6680    -3.8510     1.6040 h1         1 EL1       0.066033
     58 H23          8.7330    -5.1360     1.0160 h1         1 EL1       0.066033
     59 H24          9.4200    -3.6080     1.5840 h1         1 EL1       0.066033
@<TRIPOS>BOND
     1     1     2 1   
     2     1    36 1   
     3     1    37 1   
     4     1    38 1   
     5     2     3 1   
     6     2    39 1   
     7     3     4 2   
     8     3     5 1   
     9     5     6 ar  
    10     5    10 ar  
    11     6     7 ar  
    12     6    40 1   
    13     7     8 ar  
    14     7    41 1   
    15     8     9 ar  
    16     8    25 1   
    17     9    10 ar  
    18     9    42 1   
    19    10    11 1   
    20    11    12 1   
    21    12    13 1   
    22    12    16 1   
    23    12    43 1   
    24    13    14 1   
    25    13    44 1   
    26    13    45 1   
    27    14    15 1   
    28    14    46 1   
    29    14    47 1   
    30    15    16 1   
    31    15    17 1   
    32    16    48 1   
    33    16    49 1   
    34    17    18 2   
    35    17    19 1   
    36    19    20 2   
    37    19    24 1   
    38    20    21 1   
    39    20    50 1   
    40    21    22 2   
    41    21    51 1   
    42    22    23 1   
    43    22    24 1   
    44    25    26 ar  
    45    25    30 ar  
    46    26    27 ar  
    47    26    52 1   
    48    27    28 ar  
    49    27    53 1   
    50    28    29 ar  
    51    28    54 1   
    52    29    30 ar  
    53    29    55 1   
    54    30    31 1   
    55    31    32 1   
    56    31    56 1   
    57    32    33 1   
    58    32    34 2   
    59    32    35 2   
    60    33    57 1   
    61    33    58 1   
    62    33    59 1   
@<TRIPOS>SUBSTRUCTURE
     1 EL1         1 TEMP              0 ****  ****    0 ROOT
