@<TRIPOS>MOLECULE
molecule
   58    62     1     0     0
SMALL
bcc


@<TRIPOS>ATOM
      1 C01          0.0000     0.0000     0.0000 c3         1 EL2       0.105300
      2 N01          1.4650     0.0000     0.0000 ns         1 EL2      -0.588900
      3 C02          2.1390     0.0000     1.1670 c          1 EL2       0.677700
      4 O01          1.5310     0.0010     2.2200 o          1 EL2      -0.608100
      5 C03          3.6160    -0.0000     1.1680 ca         1 EL2      -0.174600
      6 C04          4.3150    -0.0010    -0.0470 ca         1 EL2      -0.096000
      7 C05          5.6790    -0.0020    -0.0610 ca         1 EL2      -0.138000
      8 C06          6.3900    -0.0020     1.1330 ca         1 EL2      -0.071200
      9 N02          7.7330    -0.0030     1.4420 na         1 EL2      -0.121300
     10 C07          8.8430    -0.0040     0.4880 c3         1 EL2       0.042000
     11 C08          8.7260     1.2130    -0.4330 c3         1 EL2      -0.097400
     12 C09          9.8850     1.2110    -1.4310 c3         1 EL2      -0.076400
     13 C10          9.8370    -0.0680    -2.2680 c3         1 EL2      -0.099400
     14 C11          9.9550    -1.2840    -1.3470 c3         1 EL2       0.123700
     15 C12          8.7950    -1.2840    -0.3500 c3         1 EL2      -0.109400
     16 N03          9.9080    -2.5100    -2.1490 ns         1 EL2      -0.578900
     17 C13         11.0350    -2.9890    -2.7130 c          1 EL2       0.705700
     18 O1          12.0910    -2.4050    -2.5560 o          1 EL2      -0.598100
     19 C14         10.9890    -4.2150    -3.5150 cc         1 EL2      -0.116700
     20 C15         12.0580    -4.7970    -4.1340 cd         1 EL2      -0.080000
     21 C16         11.7320    -5.9420    -4.8200 cd         1 EL2      -0.140000
     22 C17         10.4380    -6.2880    -4.7650 cc         1 EL2       0.004000
     23 Br           9.6990    -7.8100    -5.6090 br         1 EL2      -0.031100
     24 S            9.5490    -5.1750    -3.8260 ss         1 EL2      -0.048800
     25 C18          7.8360    -0.0020     2.8080 cd         1 EL2       0.366800
     26 N04          6.6410    -0.0010     3.3440 nc         1 EL2      -0.586100
     27 C19          5.7040    -0.0000     2.3640 ca         1 EL2       0.076400
     28 C20          4.3090     0.0070     2.3730 ca         1 EL2       0.003000
     29 C21          9.1070    -0.0020     3.5650 ca         1 EL2       0.420000
     30 C22          9.0870    -0.1360     4.9520 ca         1 EL2      -0.199300
     31 C23         10.2860    -0.1350     5.6460 ca         1 EL2      -0.094000
     32 C24         11.4650    -0.0010     4.9290 ca         1 EL2      -0.243300
     33 C1          11.4130     0.1270     3.5520 ca         1 EL2       0.422200
     34 N1          10.2600     0.1180     2.9160 nb         1 EL2      -0.708000
     35 H1          -0.3610    -0.8830     0.5130 h1         1 EL2       0.041367
     36 H2          -0.3610    -0.0020    -1.0210 h1         1 EL2       0.041367
     37 H3          -0.3610     0.8860     0.5090 h1         1 EL2       0.041367
     38 H4           1.9660     0.0310    -0.8660 hn         1 EL2       0.312500
     39 H5           3.7670    -0.0020    -0.9820 ha         1 EL2       0.126000
     40 H6           6.2100    -0.0030    -1.0060 ha         1 EL2       0.131000
     41 H7           9.7850     0.0400     1.0220 h1         1 EL2       0.130700
     42 H8           7.7870     1.1670    -0.9710 hc         1 EL2       0.054700
     43 H9           8.7630     2.1180     0.1610 hc         1 EL2       0.054700
     44 H10         10.8240     1.2540    -0.8920 hc         1 EL2       0.052200
     45 H11          9.7980     2.0710    -2.0840 hc         1 EL2       0.052200
     46 H12          8.8970    -0.1120    -2.8040 hc         1 EL2       0.054200
     47 H13         10.6610    -0.0690    -2.9710 hc         1 EL2       0.054200
     48 H14         10.8930    -1.2360    -0.8070 h1         1 EL2       0.085700
     49 H15          8.8810    -2.1440     0.3030 hc         1 EL2       0.056200
     50 H16          7.8560    -1.3260    -0.8890 hc         1 EL2       0.056200
     51 H17          9.0450    -3.0050    -2.2560 hn         1 EL2       0.313500
     52 H18         13.0630    -4.3960    -4.0890 ha         1 EL2       0.177000
     53 H19         12.4660    -6.5230    -5.3650 ha         1 EL2       0.164000
     54 H20          3.7740     0.1460     3.3050 ha         1 EL2       0.170000
     55 H21          8.1460    -0.2380     5.4800 ha         1 EL2       0.169000
     56 H22         10.3020    -0.2370     6.7240 ha         1 EL2       0.146000
     57 H23         12.4190     0.0050     5.4420 ha         1 EL2       0.143000
     58 H24         12.3330     0.2290     2.9890 h4         1 EL2       0.028100
@<TRIPOS>BOND
     1    23    22 1
     2    22    24 1
     3    22    21 2
     4    24    19 1
     5    33    34 ar
     6    33    32 ar
     7    21    20 1
     8    34    29 ar
     9     4     3 2
    10    19    20 2
    11    19    17 1
    12    32    31 ar
    13    26    27 1
    14    26    25 2
    15    18    17 2
    16    28    27 ar
    17    28     5 ar
    18     3     5 1
    19     3     2 1
    20    29    25 1
    21    29    30 ar
    22    17    16 1
    23    27     8 ar
    24     1     2 1
    25    25     9 1
    26     5     6 ar
    27    31    30 ar
    28     8     9 1
    29     8     7 ar
    30    16    14 1
    31     9    10 1
    32    15    14 1
    33    15    10 1
    34     6     7 ar
    35    14    13 1
    36    10    11 1
    37    13    12 1
    38    11    12 1
    39     1    35 1
    40     1    36 1
    41     1    37 1
    42     2    38 1
    43     6    39 1
    44     7    40 1
    45    10    41 1
    46    11    42 1
    47    11    43 1
    48    12    44 1
    49    12    45 1
    50    13    46 1
    51    13    47 1
    52    14    48 1
    53    15    49 1
    54    15    50 1
    55    16    51 1
    56    20    52 1
    57    21    53 1
    58    28    54 1
    59    30    55 1
    60    31    56 1
    61    32    57 1
    62    33    58 1
@<TRIPOS>SUBSTRUCTURE
     1 EL2         1 TEMP              0 ****  ****    0 ROOT
