@<TRIPOS>MOLECULE
molecule
   39    41     1     0     0
SMALL
bcc


@<TRIPOS>ATOM
      1 CAI          0.0000     0.0000     0.0000 c3         1 EL3      -0.068400
      2 CAO          1.5400     0.0000     0.0000 c3         1 EL3      -0.032800
      3 CAH          1.9340     1.3380    -0.6260 c3         1 EL3      -0.065400
      4 CAG          0.7760     2.2970    -0.2620 c3         1 EL3      -0.089400
      5 CAM         -0.2550     1.4450     0.5170 c3         1 EL3      -0.061700
      6 CAN          0.0910     1.5060     2.0040 c3         1 EL3      -0.009800
      7 CAC          0.3630     2.9630     2.3850 c3         1 EL3      -0.081600
      8 CAD         -1.1100     1.0040     2.8090 c3         1 EL3      -0.081600
      9 CAJ          1.2930     0.6800     2.3670 c2         1 EL3      -0.108400
     10 CAA          1.7490     0.6350     3.8020 c3         1 EL3      -0.047900
     11 CAK          1.9480     0.0000     1.4680 c2         1 EL3      -0.120400
     12 CAE          3.1500    -0.8940     1.5910 c3         1 EL3      -0.037200
     13 CAF          3.5070    -1.3670     0.1620 c3         1 EL3      -0.077400
     14 CAL          2.1750    -1.2220    -0.6270 c3         1 EL3      -0.056700
     15 CAB          2.4490    -0.9880    -2.1130 c3         1 EL3      -0.084100
     16 HAI         -0.3940    -0.7390     0.6870 hc         1 EL3       0.049700
     17 HAIA        -0.3940    -0.1350    -1.0000 hc         1 EL3       0.049700
     18 HAH          2.0200     1.2410    -1.7020 hc         1 EL3       0.047200
     19 HAHA         2.8660     1.6940    -0.2030 hc         1 EL3       0.047200
     20 HAG          0.3260     2.6970    -1.1630 hc         1 EL3       0.045700
     21 HAGA         1.1420     3.1040     0.3620 hc         1 EL3       0.045700
     22 HAM         -1.2710     1.7670     0.3240 hc         1 EL3       0.058700
     23 HAC          1.4040     3.1960     2.2000 hc         1 EL3       0.035867
     24 HACA        -0.2640     3.6150     1.7890 hc         1 EL3       0.035867
     25 HACB         0.1400     3.1090     3.4350 hc         1 EL3       0.035867
     26 HAD         -2.0260     1.3470     2.3430 hc         1 EL3       0.035867
     27 HADA        -1.0530     1.3900     3.8200 hc         1 EL3       0.035867
     28 HADB        -1.1000    -0.0790     2.8340 hc         1 EL3       0.035867
     29 HAA          1.6710    -0.3790     4.1750 hc         1 EL3       0.039367
     30 HAAA         1.1260     1.2890     4.4000 hc         1 EL3       0.039367
     31 HAAB         2.7800     0.9640     3.8630 hc         1 EL3       0.039367
     32 HAE          3.9800    -0.3400     2.0140 hc         1 EL3       0.048700
     33 HAEA         2.9130    -1.7480     2.2130 hc         1 EL3       0.048700
     34 HAF          4.2710    -0.7300    -0.2670 hc         1 EL3       0.044700
     35 HAFA         3.8280    -2.4010     0.1750 hc         1 EL3       0.044700
     36 HAL          1.5490    -2.0940    -0.4790 hc         1 EL3       0.058700
     37 HAB          3.2410    -0.2570    -2.2240 hc         1 EL3       0.034367
     38 HABA         2.7510    -1.9190    -2.5770 hc         1 EL3       0.034367
     39 HABB         1.5500    -0.6210    -2.5930 hc         1 EL3       0.034367
@<TRIPOS>BOND
     1     1     2 1
     2     1     5 1
     3     2     3 1
     4     2    11 1
     5     2    14 1
     6     3     4 1
     7     4     5 1
     8     5     6 1
     9     6     7 1
    10     6     8 1
    11     6     9 1
    12     9    10 1
    13     9    11 2
    14    11    12 1
    15    12    13 1
    16    13    14 1
    17    14    15 1
    18     1    16 1
    19     1    17 1
    20     3    18 1
    21     3    19 1
    22     4    20 1
    23     4    21 1
    24     5    22 1
    25     7    23 1
    26     7    24 1
    27     7    25 1
    28     8    26 1
    29     8    27 1
    30     8    28 1
    31    10    29 1
    32    10    30 1
    33    10    31 1
    34    12    32 1
    35    12    33 1
    36    13    34 1
    37    13    35 1
    38    14    36 1
    39    15    37 1
    40    15    38 1
    41    15    39 1
@<TRIPOS>SUBSTRUCTURE
     1 EL3         1 TEMP              0 ****  ****    0 ROOT
