@<TRIPOS>MOLECULE
EL3
   39    41     1     0     0
SMALL
bcc


@<TRIPOS>ATOM
      1 CAI         0.0270    0.0930   -0.0370 c3        1 EL3     -0.070400
      2 CAO         1.5640    0.0610   -0.0480 c3        1 EL3     -0.018800
      3 CAH         1.9230    1.4190   -0.6820 c3        1 EL3     -0.065400
      4 CAG         0.7800    2.3580   -0.2840 c3        1 EL3     -0.080400
      5 CAM        -0.2130    1.5050    0.5230 c3        1 EL3     -0.058700
      6 CAN         0.0800    1.5120    2.0400 c3        1 EL3     -0.001800
      7 CAC         0.1960    2.9470    2.5460 c3        1 EL3     -0.085100
      8 CAD        -1.1010    0.8570    2.7590 c3        1 EL3     -0.085100
      9 CAJ         1.3410    0.7360    2.3550 c2        1 EL3     -0.109400
     10 CAA         1.7750    0.7200    3.7720 c3        1 EL3     -0.054900
     11 CAK         2.0070    0.0640    1.4000 c2        1 EL3     -0.112400
     12 CAE         3.1900   -0.8260    1.5710 c3        1 EL3     -0.038200
     13 CAF         3.4040   -1.5250    0.2300 c3        1 EL3     -0.075400
     14 CAL         2.2030   -1.1850   -0.6620 c3        1 EL3     -0.049700
     15 CAB         2.6010   -1.0580   -2.1100 c3        1 EL3     -0.084100
     16 HAI        -0.3840   -0.0040   -1.0710 hc        1 EL3      0.048200
     17 HAIA       -0.4080   -0.7110    0.5990 hc        1 EL3      0.048200
     18 HAH         2.9080    1.7860   -0.3090 hc        1 EL3      0.045200
     19 HAHA        1.9800    1.3330   -1.7940 hc        1 EL3      0.045200
     20 HAG         1.1600    3.2320    0.2950 hc        1 EL3      0.042700
     21 HAGA        0.2710    2.7550   -1.1970 hc        1 EL3      0.042700
     22 HAM        -1.2620    1.8490    0.3530 hc        1 EL3      0.053700
     23 HAC         1.2200    3.3530    2.3690 hc        1 EL3      0.035200
     24 HACA       -0.5470    3.5980    2.0260 hc        1 EL3      0.035200
     25 HACB       -0.0070    2.9920    3.6440 hc        1 EL3      0.035200
     26 HAD        -1.2250   -0.2040    2.4380 hc        1 EL3      0.035200
     27 HADA       -2.0410    1.4150    2.5310 hc        1 EL3      0.035200
     28 HADB       -0.9380    0.8740    3.8640 hc        1 EL3      0.035200
     29 HAA         2.8120    0.3130    3.8740 hc        1 EL3      0.039700
     30 HAAA        1.7610    1.7510    4.2040 hc        1 EL3      0.039700
     31 HAAB        1.0870    0.0770    4.3770 hc        1 EL3      0.039700
     32 HAE         3.0040   -1.5730    2.3850 hc        1 EL3      0.049200
     33 HAEA        4.0950   -0.2320    1.8610 hc        1 EL3      0.049200
     34 HAF         3.4880   -2.6310    0.3650 hc        1 EL3      0.041200
     35 HAFA        4.3530   -1.1690   -0.2430 hc        1 EL3      0.041200
     36 HAL         1.4500   -2.0200   -0.5800 hc        1 EL3      0.048700
     37 HAB         3.4000   -0.2890   -2.2440 hc        1 EL3      0.034367
     38 HABA        1.7200   -0.7690   -2.7340 hc        1 EL3      0.034367
     39 HABB        2.9930   -2.0360   -2.4810 hc        1 EL3      0.034367
@<TRIPOS>BOND
     1    1    2 1   
     2    1    5 1   
     3    1   16 1   
     4    1   17 1   
     5    2    3 1   
     6    2   11 1   
     7    2   14 1   
     8    3    4 1   
     9    3   18 1   
    10    3   19 1   
    11    4    5 1   
    12    4   20 1   
    13    4   21 1   
    14    5    6 1   
    15    5   22 1   
    16    6    7 1   
    17    6    8 1   
    18    6    9 1   
    19    7   23 1   
    20    7   24 1   
    21    7   25 1   
    22    8   26 1   
    23    8   27 1   
    24    8   28 1   
    25    9   10 1   
    26    9   11 2   
    27   10   29 1   
    28   10   30 1   
    29   10   31 1   
    30   11   12 1   
    31   12   13 1   
    32   12   32 1   
    33   12   33 1   
    34   13   14 1   
    35   13   34 1   
    36   13   35 1   
    37   14   15 1   
    38   14   36 1   
    39   15   37 1   
    40   15   38 1   
    41   15   39 1   
@<TRIPOS>SUBSTRUCTURE
     1 EL3         1 TEMP              0 ****  ****    0 ROOT
