@<TRIPOS>MOLECULE
EL5
   77    80     1     0     0
SMALL
bcc


@<TRIPOS>ATOM
      1 C1A          0.0000     0.0000     0.0000 c          1 EL5       0.607500
      2 C1B         -0.8700    -0.0850     4.1320 cc         1 EL5       0.439900
      3 O1B         -4.9220     1.9190     9.3490 o          1 EL5      -0.901300
      4 C1C         -4.7950     0.0150     2.6670 cc         1 EL5      -0.343100
      5 O1C         -9.3970    -1.4110     4.3210 o          1 EL5      -0.901800
      6 C1D         -3.6270     2.1180    -0.9110 cc         1 EL5      -0.152400
      7 C2A          1.5110     0.0000     0.0000 c3         1 EL5      -0.094500
      8 C2B         -1.1540    -0.2280     5.5140 cc         1 EL5      -0.309800
      9 O2B         -4.6750    -0.2700     9.1740 o          1 EL5      -0.901300
     10 C2C         -6.0550    -0.2780     2.1420 cd         1 EL5      -0.043300
     11 O2C        -10.1150     0.6220     4.8050 o          1 EL5      -0.901800
     12 C2D         -3.4320     3.0650     0.1110 cc         1 EL5      -0.034200
     13 C3A          1.8920     0.0000     1.4680 cf         1 EL5      -0.094200
     14 C3B         -2.5050    -0.2690     5.6410 cd         1 EL5      -0.032200
     15 C3C         -6.0290     0.0260     0.7940 cd         1 EL5      -0.151300
     16 C3D         -2.7020     4.1110    -0.4250 cd         1 EL5      -0.197200
     17 C4A          0.6080     0.0000     2.1860 cf         1 EL5      -0.111400
     18 C4B         -3.0420    -0.1510     4.3320 cd         1 EL5      -0.041400
     19 C4C         -4.7550     0.5040     0.4910 cc         1 EL5      -0.291100
     20 C4D         -2.4500     3.7710    -1.8330 c          1 EL5       0.622700
     21 CAA          3.1180    -0.0010     1.9910 c2         1 EL5      -0.141200
     22 CAB         -3.2830    -0.4130     6.9230 c3         1 EL5       0.041800
     23 CAC         -7.2310    -0.8260     2.9090 c3         1 EL5       0.050900
     24 CAD         -2.2630     5.3280     0.2770 cf         1 EL5      -0.062000
     25 CBA          4.3210     0.0830     1.0880 c3         1 EL5       0.050100
     26 CBB         -3.6850     0.9720     7.4340 c3         1 EL5      -0.130400
     27 CBC         -8.0650     0.3320     3.4620 c3         1 EL5      -0.133400
     28 CBD         -1.6510     6.3000    -0.3940 c2         1 EL5      -0.184000
     29 CGB         -4.4640     0.8280     8.7160 c          1 EL5       0.982600
     30 CGC         -9.2410    -0.2160     4.2270 c          1 EL5       0.982600
     31 CHB          0.4630     0.0020     3.5400 ce         1 EL5      -0.172600
     32 CHC         -4.3990    -0.1480     4.0020 ce         1 EL5       0.200800
     33 CHD         -4.3110     0.9250    -0.7790 ce         1 EL5       0.009800
     34 CMA          2.0450     1.2560    -0.6910 c3         1 EL5       0.012900
     35 CMB         -0.1460    -0.3170     6.6310 c3         1 EL5       0.099100
     36 CMC         -7.1730    -0.1340    -0.1750 c3         1 EL5       0.094200
     37 CMD         -3.9280     2.9600     1.5300 c3         1 EL5       0.002100
     38 NA          -0.4300     0.0000     1.2710 ns         1 EL5      -0.026100
     39 OA          -0.7070     0.0040    -0.9850 o          1 EL5      -0.686500
     40 NB          -2.0200    -0.0480     3.4660 nd         1 EL5      -0.612300
     41 NC          -4.0060     0.4890     1.6410 na         1 EL5       0.418900
     42 ND          -3.0260     2.5770    -2.0740 ns         1 EL5      -0.019100
     43 OD          -1.8350     4.4480    -2.6370 o          1 EL5      -0.693500
     44 H2           1.8870    -0.8930    -0.4850 hc         1 EL5       0.050700
     45 H4           3.2470    -0.0000     3.0660 ha         1 EL5       0.113000
     46 H6          -2.6680    -0.9070     7.6650 hc         1 EL5       0.032200
     47 H7          -4.1730    -1.0030     6.7410 hc         1 EL5       0.032200
     48 H8          -7.8440    -1.4290     2.2490 hc         1 EL5       0.031200
     49 H9          -6.8750    -1.4380     3.7290 hc         1 EL5       0.031200
     50 H10         -2.4390     5.4330     1.3410 ha         1 EL5       0.104000
     51 H12          4.1860    -0.5810     0.2430 hc         1 EL5       0.004367
     52 H13          5.2070    -0.2090     1.6390 hc         1 EL5       0.004367
     53 H14          4.4360     1.1000     0.7330 hc         1 EL5       0.004367
     54 H15         -2.7950     1.5620     7.6170 hc         1 EL5       0.007700
     55 H16         -4.3000     1.4670     6.6920 hc         1 EL5       0.007700
     56 H17         -7.4530     0.9340     4.1230 hc         1 EL5       0.010700
     57 H18         -8.4210     0.9440     2.6420 hc         1 EL5       0.010700
     58 H19         -1.4750     6.1950    -1.4580 ha         1 EL5       0.097500
     59 H20         -1.3280     7.1950     0.1220 ha         1 EL5       0.097500
     60 H22          1.3390     0.0030     4.1780 ha         1 EL5       0.117000
     61 H24         -5.1440    -0.3130     4.7710 ha         1 EL5       0.153000
     62 H26         -4.4060     0.2610    -1.6290 ha         1 EL5       0.112000
     63 H28          2.0970     2.0680     0.0250 hc         1 EL5       0.011033
     64 H29          1.3820     1.5320    -1.5020 hc         1 EL5       0.011033
     65 H30          3.0350     1.0590    -1.0850 hc         1 EL5       0.011033
     66 H31          0.0710     0.6780     7.0010 hc         1 EL5      -0.000967
     67 H32          0.7650    -0.7710     6.2600 hc         1 EL5      -0.000967
     68 H33         -0.5500    -0.9210     7.4340 hc         1 EL5      -0.000967
     69 H34         -7.2420     0.7480    -0.8000 hc         1 EL5       0.005033
     70 H35         -8.0970    -0.2600     0.3760 hc         1 EL5       0.005033
     71 H36         -7.0010    -1.0050    -0.7960 hc         1 EL5       0.005033
     72 H37         -3.1610     2.5100     2.1490 hc         1 EL5       0.039700
     73 H38         -4.8200     2.3460     1.5570 hc         1 EL5       0.039700
     74 H39         -4.1600     3.9490     1.9060 hc         1 EL5       0.039700
     75 H40         -1.3970     0.0010     1.5290 hn         1 EL5       0.222500
     76 H42         -3.0520     0.7780     1.7220 hn         1 EL5       0.159700
     77 H5          -3.0160     2.0950    -2.9510 hn         1 EL5       0.178500
@<TRIPOS>BOND
     1     1     7 1   
     2     1    38 1   
     3     1    39 2   
     4     2     8 1   
     5     2    31 1   
     6     2    40 2   
     7     3    29 1   
     8     4    10 2   
     9     4    32 1   
    10     4    41 1   
    11     5    30 1   
    12     6    12 1   
    13     6    33 2   
    14     6    42 1   
    15     7    13 1   
    16     7    34 1   
    17     7    44 1   
    18     8    14 2   
    19     8    35 1   
    20     9    29 1   
    21    10    15 1   
    22    10    23 1   
    23    11    30 1   
    24    12    16 2   
    25    12    37 1   
    26    13    17 1   
    27    13    21 2   
    28    14    18 1   
    29    14    22 1   
    30    15    19 2   
    31    15    36 1   
    32    16    20 1   
    33    16    24 1   
    34    17    31 2   
    35    17    38 1   
    36    18    32 2   
    37    18    40 1   
    38    19    33 1   
    39    19    41 1   
    40    20    42 1   
    41    20    43 2   
    42    21    25 1   
    43    21    45 1   
    44    22    26 1   
    45    22    46 1   
    46    22    47 1   
    47    23    27 1   
    48    23    48 1   
    49    23    49 1   
    50    24    28 2   
    51    24    50 1   
    52    25    51 1   
    53    25    52 1   
    54    25    53 1   
    55    26    29 1   
    56    26    54 1   
    57    26    55 1   
    58    27    30 1   
    59    27    56 1   
    60    27    57 1   
    61    28    58 1   
    62    28    59 1   
    63    31    60 1   
    64    32    61 1   
    65    33    62 1   
    66    34    63 1   
    67    34    64 1   
    68    34    65 1   
    69    35    66 1   
    70    35    67 1   
    71    35    68 1   
    72    36    69 1   
    73    36    70 1   
    74    36    71 1   
    75    37    72 1   
    76    37    73 1   
    77    37    74 1   
    78    38    75 1   
    79    41    76 1   
    80    42    77 1   
@<TRIPOS>SUBSTRUCTURE
     1 EL5         1 TEMP              0 ****  ****    0 ROOT
