@<TRIPOS>MOLECULE
molecule
   77    80     1     0     0
SMALL
bcc


@<TRIPOS>ATOM
      1 C1A          0.0000     0.0000     0.0000 c          1 EL5       0.704500
      2 C1B         -0.8700    -0.0850     4.1320 cc         1 EL5       0.469900
      3 O1B         -4.9220     1.9190     9.3490 o          1 EL5      -0.852800
      4 C1C         -4.7950     0.0150     2.6670 cc         1 EL5      -0.138100
      5 O1C         -9.3970    -1.4110     4.3210 o          1 EL5      -0.852300
      6 C1D         -3.6270     2.1180    -0.9110 cd         1 EL5       0.012600
      7 C2A          1.5110     0.0000     0.0000 c3         1 EL5      -0.130500
      8 C2B         -1.1540    -0.2280     5.5140 cc         1 EL5      -0.296800
      9 O2B         -4.6750    -0.2700     9.1740 o          1 EL5      -0.852800
     10 C2C         -6.0550    -0.2780     2.1420 cd         1 EL5      -0.053300
     11 O2C        -10.1150     0.6220     4.8050 o          1 EL5      -0.852300
     12 C2D         -3.4320     3.0650     0.1110 cd         1 EL5      -0.032200
     13 C3A          1.8920     0.0000     1.4680 ce         1 EL5      -0.093200
     14 C3B         -2.5050    -0.2690     5.6410 cd         1 EL5      -0.044200
     15 C3C         -6.0290     0.0260     0.7940 cd         1 EL5      -0.147300
     16 C3D         -2.7020     4.1110    -0.4250 cc         1 EL5      -0.189200
     17 C4A          0.6080     0.0000     2.1860 ce         1 EL5       0.041600
     18 C4B         -3.0420    -0.1510     4.3320 cd         1 EL5       0.016600
     19 C4C         -4.7550     0.5040     0.4910 cc         1 EL5      -0.090100
     20 C4D         -2.4500     3.7710    -1.8330 c          1 EL5       0.710700
     21 CAA          3.1180    -0.0010     1.9910 c2         1 EL5      -0.158200
     22 CAB         -3.2830    -0.4130     6.9230 c3         1 EL5      -0.020200
     23 CAC         -7.2310    -0.8260     2.9090 c3         1 EL5      -0.011100
     24 CAD         -2.2630     5.3280     0.2770 ce         1 EL5      -0.097000
     25 CBA          4.3210     0.0830     1.0880 c3         1 EL5      -0.053900
     26 CBB         -3.6850     0.9720     7.4340 c3         1 EL5      -0.177400
     27 CBC         -8.0650     0.3320     3.4620 c3         1 EL5      -0.179400
     28 CBD         -1.6510     6.3000    -0.3940 c2         1 EL5      -0.224000
     29 CGB         -4.4640     0.8280     8.7160 c          1 EL5       0.893600
     30 CGC         -9.2410    -0.2160     4.2270 c          1 EL5       0.893600
     31 CHB          0.4630     0.0020     3.5400 ce         1 EL5      -0.210600
     32 CHC         -4.3990    -0.1480     4.0020 ce         1 EL5       0.118800
     33 CHD         -4.3110     0.9250    -0.7790 ce         1 EL5      -0.064200
     34 CMA          2.0450     1.2560    -0.6910 c3         1 EL5      -0.076100
     35 CMB         -0.1460    -0.3170     6.6310 c3         1 EL5      -0.013900
     36 CMC         -7.1730    -0.1340    -0.1750 c3         1 EL5      -0.011800
     37 CMD         -3.9280     2.9600     1.5300 c3         1 EL5      -0.063900
     38 NA          -0.4300     0.0000     1.2710 ns         1 EL5      -0.451100
     39 OA          -0.7070     0.0040    -0.9850 o          1 EL5      -0.635500
     40 NB          -2.0200    -0.0480     3.4660 nd         1 EL5      -0.687300
     41 NC          -4.0060     0.4890     1.6410 na         1 EL5      -0.131100
     42 ND          -3.0260     2.5770    -2.0740 ns         1 EL5      -0.472100
     43 OD          -1.8350     4.4480    -2.6370 o          1 EL5      -0.650500
     44 H2           1.8870    -0.8930    -0.4850 hc         1 EL5       0.080700
     45 H4           3.2470    -0.0000     3.0660 ha         1 EL5       0.136000
     46 H6          -4.1730    -1.0030     6.7410 hc         1 EL5       0.059700
     47 H7          -2.6680    -0.9070     7.6650 hc         1 EL5       0.059700
     48 H8          -6.8750    -1.4380     3.7290 hc         1 EL5       0.060200
     49 H9          -7.8440    -1.4290     2.2490 hc         1 EL5       0.060200
     50 H10         -2.4390     5.4330     1.3410 ha         1 EL5       0.132000
     51 H12          5.2070    -0.2100     1.6390 hc         1 EL5       0.037700
     52 H13          4.1860    -0.5810     0.2420 hc         1 EL5       0.037700
     53 H14          4.4370     1.1000     0.7330 hc         1 EL5       0.037700
     54 H15         -4.3000     1.4670     6.6920 hc         1 EL5       0.032200
     55 H16         -2.7950     1.5620     7.6170 hc         1 EL5       0.032200
     56 H17         -8.4210     0.9440     2.6420 hc         1 EL5       0.035200
     57 H18         -7.4530     0.9340     4.1230 hc         1 EL5       0.035200
     58 H19         -1.3280     7.1950     0.1220 ha         1 EL5       0.122500
     59 H20         -1.4750     6.1950    -1.4580 ha         1 EL5       0.122500
     60 H22          1.3390     0.0030     4.1780 ha         1 EL5       0.143000
     61 H24         -5.1470    -0.2400     4.7810 ha         1 EL5       0.197000
     62 H26         -4.4060     0.2610    -1.6290 ha         1 EL5       0.145000
     63 H28          1.3820     1.5320    -1.5020 hc         1 EL5       0.043700
     64 H29          2.0960     2.0680     0.0250 hc         1 EL5       0.043700
     65 H30          3.0350     1.0590    -1.0850 hc         1 EL5       0.043700
     66 H31          0.7470    -0.8130     6.2720 hc         1 EL5       0.031033
     67 H32          0.1060     0.6810     6.9700 hc         1 EL5       0.031033
     68 H33         -0.5680    -0.8820     7.4530 hc         1 EL5       0.031033
     69 H34         -7.6710    -1.0790     0.0070 hc         1 EL5       0.038033
     70 H35         -7.8770     0.6780    -0.0390 hc         1 EL5       0.038033
     71 H36         -6.7920    -0.1160    -1.1890 hc         1 EL5       0.038033
     72 H37         -4.8270     2.3560     1.5550 hc         1 EL5       0.069033
     73 H38         -3.1650     2.4990     2.1460 hc         1 EL5       0.069033
     74 H39         -4.1480     3.9500     1.9100 hc         1 EL5       0.069033
     75 H40         -1.3970     0.0010     1.5290 hn         1 EL5       0.373500
     76 H42         -3.0520     0.7780     1.7220 hn         1 EL5       0.325700
     77 H5          -3.0160     2.0950    -2.9510 hn         1 EL5       0.340500
@<TRIPOS>BOND
     1    43    20 2
     2    42    20 1
     3    42     6 1
     4    34     7 1
     5    25    21 1
     6    20    16 1
     7     7     1 1
     8     7    13 1
     9    39     1 2
    10    28    24 2
    11    21    13 2
    12     1    38 1
    13    33     6 2
    14    33    19 1
    15    13    17 1
    16     6    12 1
    17    16    24 1
    18    16    12 2
    19    36    15 1
    20    38    17 1
    21    17    31 2
    22    19    15 2
    23    19    41 1
    24    12    37 1
    25    15    10 1
    26    41     4 1
    27    31     2 1
    28    10     4 2
    29    10    23 1
    30    40     2 2
    31    40    18 1
    32     4    32 1
    33     2     8 1
    34    23    27 1
    35    18    32 2
    36    18    14 1
    37     8    14 2
    38     8    35 1
    39     5    30 1
    40    14    22 1
    41    27    30 1
    42    30    11 1
    43    22    26 1
    44    26    29 1
    45    29     9 1
    46    29     3 1
    47     7    44 1
    48    21    45 1
    49    22    46 1
    50    22    47 1
    51    23    48 1
    52    23    49 1
    53    24    50 1
    54    25    51 1
    55    25    52 1
    56    25    53 1
    57    26    54 1
    58    26    55 1
    59    27    56 1
    60    27    57 1
    61    28    58 1
    62    28    59 1
    63    31    60 1
    64    32    61 1
    65    33    62 1
    66    34    63 1
    67    34    64 1
    68    34    65 1
    69    35    66 1
    70    35    67 1
    71    35    68 1
    72    36    69 1
    73    36    70 1
    74    36    71 1
    75    37    72 1
    76    37    73 1
    77    37    74 1
    78    38    75 1
    79    41    76 1
    80    42    77 1
@<TRIPOS>SUBSTRUCTURE
     1 EL5         1 TEMP              0 ****  ****    0 ROOT
