@<TRIPOS>MOLECULE
EL8
   49    50     1     0     0
SMALL
bcc


@<TRIPOS>ATOM
      1 C4           0.0000     0.0000     0.0000 c          1 EL8       0.539300
      2 C8          -2.3370     0.0180     2.0980 c3         1 EL8       0.121500
      3 C9          -3.1540    -0.5870     3.2400 c3         1 EL8      -0.036400
      4 O5           2.3570     0.0000    -0.8490 o          1 EL8      -0.519100
      5 C10         -2.7850    -2.0640     3.4060 c3         1 EL8      -0.036400
      6 O6          -0.8720    -0.0010    -0.8470 o          1 EL8      -0.519100
      7 C11         -3.6020    -2.6690     4.5480 c3         1 EL8      -0.013400
      8 C12         -3.2340    -4.1440     4.7130 c3         1 EL8      -0.091400
      9 C13         -4.0400    -4.7410     5.8390 c          1 EL8       0.568100
     10 C1           1.4860     0.0000     0.0000 c          1 EL8       0.545300
     11 C2           1.4460     0.0000     1.4730 cc         1 EL8      -0.226200
     12 C3           0.0400     0.0060     1.4730 cd         1 EL8      -0.154200
     13 N7          -0.9160     0.0120     2.4570 nu         1 EL8      -0.318000
     14 N14         -3.8810    -6.0390     6.1670 ns         1 EL8      -0.061400
     15 O15         -4.8310    -4.0540     6.4490 o          1 EL8      -0.616100
     16 O16         -4.6370    -6.5990     7.2250 oh         1 EL8      -0.437100
     17 C17         -2.7940     1.4570     1.8500 c3         1 EL8      -0.016100
     18 N18          2.4040     0.0000     2.4570 nu         1 EL8      -0.119400
     19 C19          3.7540    -0.1330     2.1170 ca         1 EL8      -0.037400
     20 C20          4.7250     0.5370     2.8510 ca         1 EL8      -0.087500
     21 C21          6.0580     0.4050     2.5160 ca         1 EL8      -0.127000
     22 C22          6.4280    -0.3960     1.4460 ca         1 EL8       0.116100
     23 C23          5.4600    -1.0650     0.7120 ca         1 EL8      -0.127000
     24 C24          4.1270    -0.9400     1.0490 ca         1 EL8      -0.087500
     25 O25          7.7410    -0.5250     1.1160 os         1 EL8      -0.314900
     26 C26          8.0510    -1.3660     0.0030 c3         1 EL8       0.755700
     27 F27          7.5980    -2.6650     0.2590 f          1 EL8      -0.196967
     28 F28          7.4210    -0.8710    -1.1440 f          1 EL8      -0.196967
     29 F29          9.4350    -1.3850    -0.1960 f          1 EL8      -0.196967
     30 H1          -2.4850    -0.5680     1.1980 h1         1 EL8       0.055700
     31 H2          -2.9380    -0.0560     4.1590 hc         1 EL8       0.028200
     32 H3          -4.2100    -0.5020     3.0130 hc         1 EL8       0.028200
     33 H4          -3.0010    -2.5950     2.4870 hc         1 EL8       0.014700
     34 H5          -1.7290    -2.1490     3.6330 hc         1 EL8       0.014700
     35 H6          -3.3870    -2.1380     5.4670 hc         1 EL8       0.032700
     36 H7          -4.6580    -2.5830     4.3210 hc         1 EL8       0.032700
     37 H8          -2.1780    -4.2290     4.9400 hc         1 EL8       0.025700
     38 H9          -3.4500    -4.6750     3.7940 hc         1 EL8       0.025700
     39 H10         -0.6430     0.0500     3.4190 hn         1 EL8       0.282800
     40 H11         -3.2210    -6.6040     5.6700 hn         1 EL8       0.154500
     41 H12         -4.4390    -7.5170     7.3010 ho         1 EL8       0.392000
     42 H13         -3.8210     1.4550     1.5060 hc         1 EL8       0.013367
     43 H14         -2.7220     2.0220     2.7720 hc         1 EL8       0.013367
     44 H15         -2.1610     1.9120     1.0980 hc         1 EL8       0.013367
     45 H16          2.1340     0.0690     3.4180 hn         1 EL8       0.270800
     46 H17          4.4360     1.1630     3.6870 ha         1 EL8       0.120000
     47 H18          6.8150     0.9280     3.0890 ha         1 EL8       0.126000
     48 H19          5.7500    -1.6920    -0.1220 ha         1 EL8       0.126000
     49 H20          3.3710    -1.4620     0.4750 ha         1 EL8       0.120000
@<TRIPOS>BOND
     1     1     6 2   
     2     1    10 1   
     3     1    12 1   
     4     2     3 1   
     5     2    13 1   
     6     2    17 1   
     7     2    30 1   
     8     3     5 1   
     9     3    31 1   
    10     3    32 1   
    11     4    10 2   
    12     5     7 1   
    13     5    33 1   
    14     5    34 1   
    15     7     8 1   
    16     7    35 1   
    17     7    36 1   
    18     8     9 1   
    19     8    37 1   
    20     8    38 1   
    21     9    14 1   
    22     9    15 2   
    23    10    11 1   
    24    11    12 2   
    25    11    18 1   
    26    12    13 1   
    27    13    39 1   
    28    14    16 1   
    29    14    40 1   
    30    16    41 1   
    31    17    42 1   
    32    17    43 1   
    33    17    44 1   
    34    18    19 1   
    35    18    45 1   
    36    19    20 ar  
    37    19    24 ar  
    38    20    21 ar  
    39    20    46 1   
    40    21    22 ar  
    41    21    47 1   
    42    22    23 ar  
    43    22    25 1   
    44    23    24 ar  
    45    23    48 1   
    46    24    49 1   
    47    25    26 1   
    48    26    27 1   
    49    26    28 1   
    50    26    29 1   
@<TRIPOS>SUBSTRUCTURE
     1 EL8         1 TEMP              0 ****  ****    0 ROOT
