@<TRIPOS>MOLECULE
molecule
   49    50     1     0     0
SMALL
bcc


@<TRIPOS>ATOM
      1 C4           0.0000     0.0000     0.0000 c          1 EL8       0.484300
      2 C8          -2.3370     0.0180     2.0980 c3         1 EL8       0.236500
      3 C9          -3.1540    -0.5870     3.2400 c3         1 EL8      -0.092400
      4 O5           2.3570     0.0000    -0.8490 o          1 EL8      -0.480100
      5 C10         -2.7850    -2.0640     3.4060 c3         1 EL8      -0.087400
      6 O6          -0.8720    -0.0010    -0.8470 o          1 EL8      -0.480100
      7 C11         -3.6020    -2.6690     4.5480 c3         1 EL8      -0.066400
      8 C12         -3.2340    -4.1440     4.7130 c3         1 EL8      -0.148400
      9 C13         -4.0400    -4.7410     5.8390 c          1 EL8       0.668100
     10 C1           1.4860     0.0000     0.0000 c          1 EL8       0.486300
     11 C2           1.4460     0.0000     1.4730 cc         1 EL8      -0.039200
     12 C3           0.0400     0.0060     1.4730 cd         1 EL8       0.012800
     13 N7          -0.9160     0.0120     2.4570 nu         1 EL8      -0.765000
     14 N14         -3.8810    -6.0390     6.1670 ns         1 EL8      -0.475400
     15 O15         -4.8310    -4.0540     6.4490 o          1 EL8      -0.573100
     16 O16         -4.6370    -6.5990     7.2250 oh         1 EL8      -0.362100
     17 C17         -2.7940     1.4570     1.8500 c3         1 EL8      -0.112100
     18 N18          2.4040     0.0000     2.4570 nu         1 EL8      -0.626400
     19 C19          3.7540    -0.1330     2.1170 ca         1 EL8       0.132600
     20 C20          4.7250     0.5370     2.8510 ca         1 EL8      -0.121500
     21 C21          6.0580     0.4050     2.5160 ca         1 EL8      -0.140000
     22 C22          6.4280    -0.3960     1.4460 ca         1 EL8       0.102100
     23 C23          5.4600    -1.0650     0.7120 ca         1 EL8      -0.140000
     24 C24          4.1270    -0.9400     1.0490 ca         1 EL8      -0.121500
     25 O25          7.7410    -0.5250     1.1160 os         1 EL8      -0.341900
     26 C26          8.0510    -1.3660     0.0030 c3         1 EL8       0.795700
     27 F27          7.5980    -2.6650     0.2590 f          1 EL8      -0.204300
     28 F28          7.4210    -0.8710    -1.1440 f          1 EL8      -0.204300
     29 F29          9.4350    -1.3850    -0.1960 f          1 EL8      -0.204300
     30 H1          -2.4850    -0.5680     1.1980 h1         1 EL8       0.077700
     31 H2          -2.9380    -0.0560     4.1590 hc         1 EL8       0.056200
     32 H3          -4.2100    -0.5020     3.0130 hc         1 EL8       0.056200
     33 H4          -3.0010    -2.5950     2.4870 hc         1 EL8       0.043700
     34 H5          -1.7290    -2.1490     3.6330 hc         1 EL8       0.043700
     35 H6          -3.3870    -2.1380     5.4670 hc         1 EL8       0.062200
     36 H7          -4.6580    -2.5830     4.3210 hc         1 EL8       0.062200
     37 H8          -2.1780    -4.2290     4.9400 hc         1 EL8       0.060200
     38 H9          -3.4500    -4.6750     3.7940 hc         1 EL8       0.060200
     39 H10         -0.6430     0.0500     3.4190 hn         1 EL8       0.440800
     40 H11         -3.2210    -6.6040     5.6700 hn         1 EL8       0.318500
     41 H12         -4.4390    -7.5170     7.3010 ho         1 EL8       0.398000
     42 H13         -3.8210     1.4550     1.5060 hc         1 EL8       0.045367
     43 H14         -2.7220     2.0220     2.7720 hc         1 EL8       0.045367
     44 H15         -2.1610     1.9120     1.0980 hc         1 EL8       0.045367
     45 H16          2.1340     0.0690     3.4180 hn         1 EL8       0.449800
     46 H17          4.4360     1.1630     3.6870 ha         1 EL8       0.147500
     47 H18          6.8150     0.9280     3.0890 ha         1 EL8       0.153000
     48 H19          5.7500    -1.6920    -0.1220 ha         1 EL8       0.153000
     49 H20          3.3710    -1.4620     0.4750 ha         1 EL8       0.147500
@<TRIPOS>BOND
     1    27    26 1
     2    29    26 1
     3    26    25 1
     4    26    28 1
     5    25    22 1
     6    23    22 ar
     7    23    24 ar
     8    22    21 ar
     9    24    19 ar
    10    21    20 ar
    11    19    20 ar
    12    19    18 1
    13    18    11 1
    14    11    10 1
    15    11    12 2
    16     4    10 2
    17    10     1 1
    18    12    13 1
    19    12     1 1
    20    13     2 1
    21     1     6 2
    22     8     9 1
    23     8     7 1
    24     5     7 1
    25     5     3 1
    26     2     3 1
    27     2    17 1
    28     9    15 2
    29     9    14 1
    30    14    16 1
    31     2    30 1
    32     3    31 1
    33     3    32 1
    34     5    33 1
    35     5    34 1
    36     7    35 1
    37     7    36 1
    38     8    37 1
    39     8    38 1
    40    13    39 1
    41    14    40 1
    42    16    41 1
    43    17    42 1
    44    17    43 1
    45    17    44 1
    46    18    45 1
    47    20    46 1
    48    21    47 1
    49    23    48 1
    50    24    49 1
@<TRIPOS>SUBSTRUCTURE
     1 EL8         1 TEMP              0 ****  ****    0 ROOT
