@<TRIPOS>MOLECULE
molecule
   53    52     1     0     0
SMALL
bcc


@<TRIPOS>ATOM
      1 CA           0.0000     0.0000     0.0000 c3         1 ELA      -0.182400
      2 C            1.5070     0.0000     0.0000 c          1 ELA       0.890600
      3 O            2.1120     0.0000     1.0460 o          1 ELA      -0.858300
      4 C3          -0.5090     0.0010     1.4430 c3         1 ELA      -0.063400
      5 C4          -2.0380     0.0010     1.4440 c3         1 ELA      -0.088400
      6 C5          -2.5490     0.0010     2.8860 c3         1 ELA      -0.081400
      7 C6          -4.0790     0.0000     2.8860 c3         1 ELA      -0.084400
      8 C7          -4.5880     0.0020     4.3290 c3         1 ELA      -0.077400
      9 C8          -6.1180     0.0010     4.3290 c3         1 ELA      -0.051200
     10 C9          -6.6200     0.0020     5.7490 c2         1 ELA      -0.163200
     11 C10         -7.3730     0.9830     6.1790 c2         1 ELA      -0.191200
     12 C11         -7.8750     0.9840     7.5980 c3         1 ELA      -0.045200
     13 C12         -7.3640     2.2320     8.3210 c3         1 ELA      -0.077400
     14 C13         -7.8740     2.2330     9.7630 c3         1 ELA      -0.082400
     15 C14         -7.3640     3.4810    10.4840 c3         1 ELA      -0.081400
     16 C15         -7.8740     3.4810    11.9260 c3         1 ELA      -0.082400
     17 C16         -7.3630     4.7300    12.6490 c3         1 ELA      -0.081400
     18 C17         -7.8740     4.7300    14.0900 c3         1 ELA      -0.084400
     19 C18         -7.3630     5.9790    14.8120 c3         1 ELA      -0.092100
     20 OXT          2.1780    -0.0000    -1.1630 o          1 ELA      -0.858300
     21 HA1         -0.3610     0.8840    -0.5110 hc         1 ELA       0.026700
     22 HA2         -0.3610    -0.8850    -0.5100 hc         1 ELA       0.026700
     23 H31         -0.1480    -0.8840     1.9530 hc         1 ELA       0.044700
     24 H32         -0.1480     0.8850     1.9530 hc         1 ELA       0.044700
     25 H41         -2.4000    -0.8840     0.9330 hc         1 ELA       0.028700
     26 H42         -2.4000     0.8850     0.9330 hc         1 ELA       0.028700
     27 H51         -2.1870    -0.8840     3.3970 hc         1 ELA       0.038700
     28 H52         -2.1880     0.8850     3.3960 hc         1 ELA       0.038700
     29 H61         -4.4400     0.8840     2.3750 hc         1 ELA       0.036200
     30 H62         -4.4400    -0.8850     2.3770 hc         1 ELA       0.036200
     31 H71         -4.2270    -0.8820     4.8400 hc         1 ELA       0.042200
     32 H72         -4.2270     0.8870     4.8380 hc         1 ELA       0.042200
     33 H81         -6.4800     0.8850     3.8180 hc         1 ELA       0.044200
     34 H82         -6.4790    -0.8840     3.8190 hc         1 ELA       0.044200
     35 H9          -6.3590    -0.8120     6.4150 ha         1 ELA       0.121000
     36 H10         -7.6340     1.7960     5.5120 ha         1 ELA       0.123000
     37 H111        -8.9580     0.9850     7.5980 hc         1 ELA       0.041200
     38 H112        -7.5150     0.0990     8.1090 hc         1 ELA       0.041200
     39 H121        -6.2810     2.2310     8.3210 hc         1 ELA       0.044700
     40 H122        -7.7240     3.1170     7.8100 hc         1 ELA       0.044700
     41 H131        -7.5140     1.3490    10.2730 hc         1 ELA       0.039200
     42 H132        -8.9570     2.2340     9.7620 hc         1 ELA       0.039200
     43 H141        -6.2810     3.4810    10.4850 hc         1 ELA       0.042200
     44 H142        -7.7240     4.3660     9.9740 hc         1 ELA       0.042200
     45 H151        -8.9570     3.4820    11.9260 hc         1 ELA       0.039700
     46 H152        -7.5140     2.5960    12.4370 hc         1 ELA       0.039700
     47 H161        -7.7230     5.6150    12.1380 hc         1 ELA       0.041700
     48 H162        -6.2800     4.7280    12.6490 hc         1 ELA       0.041700
     49 H171        -7.5140     3.8450    14.6010 hc         1 ELA       0.038700
     50 H172        -8.9570     4.7320    14.0900 hc         1 ELA       0.038700
     51 H181        -7.7230     6.8640    14.3020 hc         1 ELA       0.031367
     52 H182        -6.2800     5.9780    14.8130 hc         1 ELA       0.031367
     53 H183        -7.7250     5.9790    15.8330 hc         1 ELA       0.031367
@<TRIPOS>BOND
     1     1     2 1
     2     1     4 1
     3     1    21 1
     4     1    22 1
     5     2     3 1
     6     2    20 1
     7     4     5 1
     8     4    23 1
     9     4    24 1
    10     5     6 1
    11     5    25 1
    12     5    26 1
    13     6     7 1
    14     6    27 1
    15     6    28 1
    16     7     8 1
    17     7    29 1
    18     7    30 1
    19     8     9 1
    20     8    31 1
    21     8    32 1
    22     9    10 1
    23     9    33 1
    24     9    34 1
    25    10    11 2
    26    10    35 1
    27    11    12 1
    28    11    36 1
    29    12    13 1
    30    12    37 1
    31    12    38 1
    32    13    14 1
    33    13    39 1
    34    13    40 1
    35    14    15 1
    36    14    41 1
    37    14    42 1
    38    15    16 1
    39    15    43 1
    40    15    44 1
    41    16    17 1
    42    16    45 1
    43    16    46 1
    44    17    18 1
    45    17    47 1
    46    17    48 1
    47    18    19 1
    48    18    49 1
    49    18    50 1
    50    19    51 1
    51    19    52 1
    52    19    53 1
@<TRIPOS>SUBSTRUCTURE
     1 ELA         1 TEMP              0 ****  ****    0 ROOT
