@<TRIPOS>MOLECULE
ELA
   53    52     1     0     0
SMALL
bcc


@<TRIPOS>ATOM
      1 CA         -0.0220   -1.0320    0.0740 c3        1 ELA     -0.194400
      2 C           0.6400   -2.2410   -0.6110 c         1 ELA      0.907600
      3 O           0.9060   -3.2610    0.0880 o         1 ELA     -0.853300
      4 C3         -1.1700   -1.4600    0.9550 c3        1 ELA     -0.065400
      5 C4         -1.7110   -0.3100    1.7780 c3        1 ELA     -0.078400
      6 C5         -2.8730   -0.7470    2.6440 c3        1 ELA     -0.078400
      7 C6         -3.4080    0.4010    3.4740 c3        1 ELA     -0.079400
      8 C7         -4.5700   -0.0380    4.3400 c3        1 ELA     -0.077400
      9 C8         -5.1010    1.1110    5.1710 c3        1 ELA     -0.052200
     10 C9         -6.2410    0.7110    6.0280 c2        1 ELA     -0.160200
     11 C10        -6.9410    1.5640    6.7840 c2        1 ELA     -0.190200
     12 C11        -6.6690    3.0200    6.8460 c3        1 ELA     -0.046200
     13 C12        -7.5000    3.7380    7.8900 c3        1 ELA     -0.074400
     14 C13        -7.0670    3.3910    9.2980 c3        1 ELA     -0.080400
     15 C14        -7.9240    4.0960   10.3270 c3        1 ELA     -0.078400
     16 C15        -7.4860    3.7540   11.7350 c3        1 ELA     -0.079400
     17 C16        -8.3430    4.4570   12.7650 c3        1 ELA     -0.078400
     18 C17        -7.9050    4.1160   14.1730 c3        1 ELA     -0.080400
     19 C18        -8.7560    4.8140   15.2030 c3        1 ELA     -0.092100
     20 OXT         0.9040   -2.1450   -1.8440 o         1 ELA     -0.853300
     21 HA1        -0.3750   -0.3110   -0.7050 hc        1 ELA      0.018700
     22 HA2         0.7600   -0.5170    0.6890 hc        1 ELA      0.018700
     23 H31        -1.9900   -1.8830    0.3180 hc        1 ELA      0.044200
     24 H32        -0.8160   -2.2860    1.6290 hc        1 ELA      0.044200
     25 H41        -0.8940    0.1030    2.4270 hc        1 ELA      0.025700
     26 H42        -2.0410    0.5180    1.0970 hc        1 ELA      0.025700
     27 H51        -2.5430   -1.5790    3.3200 hc        1 ELA      0.036700
     28 H52        -3.6920   -1.1540    1.9950 hc        1 ELA      0.036700
     29 H61        -2.5880    0.8070    4.1240 hc        1 ELA      0.034200
     30 H62        -3.7360    1.2330    2.7980 hc        1 ELA      0.034200
     31 H71        -4.2410   -0.8710    5.0160 hc        1 ELA      0.039700
     32 H72        -5.3900   -0.4430    3.6900 hc        1 ELA      0.039700
     33 H81        -4.2750    1.5180    5.8180 hc        1 ELA      0.046700
     34 H82        -5.4190    1.9500    4.4920 hc        1 ELA      0.046700
     35 H9         -6.4960   -0.3610    6.0190 ha        1 ELA      0.122000
     36 H10        -7.7780    1.2030    7.4020 ha        1 ELA      0.116000
     37 H111       -6.8800    3.4720    5.8370 hc        1 ELA      0.047700
     38 H112       -5.5770    3.1890    7.0530 hc        1 ELA      0.047700
     39 H121       -8.5830    3.4790    7.7550 hc        1 ELA      0.036700
     40 H122       -7.4010    4.8450    7.7350 hc        1 ELA      0.036700
     41 H131       -7.1330    2.2810    9.4470 hc        1 ELA      0.042700
     42 H132       -5.9920    3.6790    9.4430 hc        1 ELA      0.042700
     43 H141       -7.8620    5.2050   10.1730 hc        1 ELA      0.036700
     44 H142       -8.9980    3.8030   10.1870 hc        1 ELA      0.036700
     45 H151       -6.4120    4.0480   11.8760 hc        1 ELA      0.040700
     46 H152       -7.5470    2.6440   11.8890 hc        1 ELA      0.040700
     47 H161       -9.4170    4.1630   12.6250 hc        1 ELA      0.037700
     48 H162       -8.2830    5.5670   12.6110 hc        1 ELA      0.037700
     49 H171       -7.9650    3.0060   14.3250 hc        1 ELA      0.038700
     50 H172       -6.8300    4.4100   14.3110 hc        1 ELA      0.038700
     51 H181       -8.4160    4.5490   16.2330 hc        1 ELA      0.030367
     52 H182       -9.8270    4.5150   15.0970 hc        1 ELA      0.030367
     53 H183       -8.6900    5.9220   15.0830 hc        1 ELA      0.030367
@<TRIPOS>BOND
     1    1    2 1   
     2    1    4 1   
     3    1   21 1   
     4    1   22 1   
     5    2    3 1   
     6    2   20 1   
     7    4    5 1   
     8    4   23 1   
     9    4   24 1   
    10    5    6 1   
    11    5   25 1   
    12    5   26 1   
    13    6    7 1   
    14    6   27 1   
    15    6   28 1   
    16    7    8 1   
    17    7   29 1   
    18    7   30 1   
    19    8    9 1   
    20    8   31 1   
    21    8   32 1   
    22    9   10 1   
    23    9   33 1   
    24    9   34 1   
    25   10   11 2   
    26   10   35 1   
    27   11   12 1   
    28   11   36 1   
    29   12   13 1   
    30   12   37 1   
    31   12   38 1   
    32   13   14 1   
    33   13   39 1   
    34   13   40 1   
    35   14   15 1   
    36   14   41 1   
    37   14   42 1   
    38   15   16 1   
    39   15   43 1   
    40   15   44 1   
    41   16   17 1   
    42   16   45 1   
    43   16   46 1   
    44   17   18 1   
    45   17   47 1   
    46   17   48 1   
    47   18   19 1   
    48   18   49 1   
    49   18   50 1   
    50   19   51 1   
    51   19   52 1   
    52   19   53 1   
@<TRIPOS>SUBSTRUCTURE
     1 ELA         1 TEMP              0 ****  ****    0 ROOT
