@<TRIPOS>MOLECULE
ELB
   47    50     1     0     0
SMALL
bcc


@<TRIPOS>ATOM
      1 C10          0.0000     0.0000     0.0000 c3         1 ELB       0.064000
      2 C13          1.5500     1.2680     2.1580 c3         1 ELB      -0.071900
      3 C17         -2.6770     2.7920    -1.5260 ca         1 ELB      -0.070400
      4 C20         -4.1690     4.7770    -2.7480 ca         1 ELB       0.186900
      5 C22         -3.5660     3.7950    -3.5140 ca         1 ELB      -0.064500
      6 C24          4.2940    -1.0230     2.0240 ca         1 ELB      -0.097400
      7 C26          5.0300    -2.9940     3.1750 ca         1 ELB      -0.037000
      8 C02          6.6510    -1.4680     2.2700 ca         1 ELB       0.086600
      9 C03          5.6220    -0.6560     1.8030 ca         1 ELB      -0.246400
     10 N04          5.5970     0.5490     1.1010 ns         1 ELB       0.024900
     11 C05          4.3110     0.8970     0.9040 c          1 ELB       0.571500
     12 O06          3.9370     1.8980     0.3220 o          1 ELB      -0.725500
     13 N07          3.5030    -0.0310     1.4500 n          1 ELB       0.053000
     14 C08          2.0370     0.0000     1.4450 c3         1 ELB       0.038700
     15 C09          1.5320     0.0000     0.0000 c3         1 ELB      -0.071900
     16 N11         -0.4760     1.1320     0.8050 n          1 ELB      -0.175800
     17 C12          0.0190     1.2780     2.1810 c3         1 ELB       0.064000
     18 C14         -1.3500     2.0210     0.2920 c          1 ELB       0.592100
     19 O15         -1.6260     3.0300     0.9120 o          1 ELB      -0.692100
     20 N16         -1.9180     1.7920    -0.9080 ns         1 ELB      -0.055100
     21 C18         -3.2840     3.7780    -0.7590 ca         1 ELB      -0.135000
     22 C19         -4.0280     4.7670    -1.3720 ca         1 ELB      -0.064500
     23 I21         -5.2980     6.2790    -3.6740 i          1 ELB      -0.309900
     24 C23         -2.8210     2.8040    -2.9070 ca         1 ELB      -0.135000
     25 C25          4.0040    -2.1910     2.7130 ca         1 ELB      -0.154000
     26 C27          6.3490    -2.6380     2.9530 ca         1 ELB      -0.196000
     27 H1          -0.3620     0.1010    -1.0160 h1         1 ELB       0.026700
     28 H2          -0.3620    -0.9260     0.4290 h1         1 ELB       0.026700
     29 H3           1.9090     2.1410     1.6260 hc         1 ELB       0.046200
     30 H4           1.9260     1.2770     3.1740 hc         1 ELB       0.046200
     31 H5          -3.6780     3.8040    -4.5910 ha         1 ELB       0.116500
     32 H6           4.8000    -3.9080     3.7090 ha         1 ELB       0.102000
     33 H7           8.7230    -1.6930     2.3890 hn         1 ELB       0.266300
     34 H8           8.2000    -0.2640     1.5590 hn         1 ELB       0.266300
     35 H9           6.3980     1.0660     0.7950 hn         1 ELB       0.185500
     36 H10          1.6520    -0.8720     1.9600 h1         1 ELB       0.040700
     37 H11          1.8920     0.8860    -0.5080 hc         1 ELB       0.046200
     38 H12          1.8920    -0.8860    -0.5080 hc         1 ELB       0.046200
     39 H13         -0.3310     2.2170     2.5940 h1         1 ELB       0.026700
     40 H14         -0.3400     0.4530     2.7840 h1         1 ELB       0.026700
     41 H15         -1.8340     0.8910    -1.3370 hn         1 ELB       0.172500
     42 H16         -3.1740     3.7710     0.3180 ha         1 ELB       0.143000
     43 H17         -4.5010     5.5360    -0.7750 ha         1 ELB       0.116500
     44 H18         -2.3490     2.0360    -3.5080 ha         1 ELB       0.143000
     45 H19          2.9740    -2.4750     2.8900 ha         1 ELB       0.108000
     46 H20          7.1480    -3.2720     3.3180 ha         1 ELB       0.113000
     47 N01          7.9840    -1.1070     2.0520 nv         1 ELB      -0.445200
@<TRIPOS>BOND
     1     1    15 1   
     2     1    16 1   
     3     1    27 1   
     4     1    28 1   
     5     2    14 1   
     6     2    17 1   
     7     2    29 1   
     8     2    30 1   
     9     3    20 1   
    10     3    21 ar  
    11     3    24 ar  
    12     4     5 ar  
    13     4    22 ar  
    14     4    23 1   
    15     5    24 ar  
    16     5    31 1   
    17     6     9 ar  
    18     6    13 1   
    19     6    25 ar  
    20     7    25 ar  
    21     7    26 ar  
    22     7    32 1   
    23     8     9 ar  
    24     8    26 ar  
    25     8    47 1   
    26     9    10 1   
    27    10    11 1   
    28    10    35 1   
    29    11    12 2   
    30    11    13 1   
    31    13    14 1   
    32    14    15 1   
    33    14    36 1   
    34    15    37 1   
    35    15    38 1   
    36    16    17 1   
    37    16    18 1   
    38    17    39 1   
    39    17    40 1   
    40    18    19 2   
    41    18    20 1   
    42    20    41 1   
    43    21    22 ar  
    44    21    42 1   
    45    22    43 1   
    46    24    44 1   
    47    25    45 1   
    48    26    46 1   
    49    33    47 1   
    50    34    47 1   
@<TRIPOS>SUBSTRUCTURE
     1 ELB         1 TEMP              0 ****  ****    0 ROOT
