@<TRIPOS>MOLECULE
molecule
   56    55     1     0     0
SMALL
bcc


@<TRIPOS>ATOM
      1 C1           0.0000     0.0000     0.0000 c          1 ELD       0.473100
      2 N1           1.3480     0.0000     0.0000 nz         1 ELD      -0.687400
      3 O2          -0.6060     0.0000     1.0510 o          1 ELD      -0.386100
      4 C2          -0.7540     0.0000    -1.3050 c3         1 ELD      -0.159400
      5 C3          -2.2570     0.0000    -1.0250 c3         1 ELD      -0.074400
      6 C4          -3.0230     0.0010    -2.3500 c3         1 ELD      -0.082400
      7 C5          -4.5270     0.0010    -2.0700 c3         1 ELD      -0.077400
      8 C6          -5.2920     0.0000    -3.3950 c3         1 ELD      -0.086400
      9 C7          -6.7960     0.0020    -3.1160 c3         1 ELD      -0.035400
     10 C8          -7.5610     0.0010    -4.4400 c3         1 ELD      -0.147200
     11 C9          -9.0430     0.0010    -4.1650 c2         1 ELD      -0.342200
     12 C10         -9.8100     0.9160    -4.7050 c2         1 ELD      -0.318200
     13 C11         -9.2450     1.8610    -5.7340 c3         1 ELD      -0.148200
     14 C12        -10.1250     1.8400    -6.9850 c3         1 ELD      -0.035400
     15 C13         -9.5510     2.8000    -8.0290 c3         1 ELD      -0.086400
     16 C14        -10.4330     2.7780    -9.2800 c3         1 ELD      -0.080400
     17 C15         -9.8580     3.7380   -10.3240 c3         1 ELD      -0.081400
     18 C16        -10.7390     3.7160   -11.5750 c3         1 ELD      -0.081400
     19 C17        -10.1650     4.6760   -12.6200 c3         1 ELD      -0.084400
     20 C18        -11.0460     4.6550   -13.8700 c3         1 ELD      -0.092100
     21 HN11         1.6820     0.8180    -0.4710 hn         1 ELD       0.478467
     22 HN12         1.6820    -0.8170    -0.4720 hn         1 ELD       0.478467
     23 H21         -0.4920    -0.8840    -1.8730 hc         1 ELD       0.093200
     24 H22         -0.4920     0.8850    -1.8730 hc         1 ELD       0.093200
     25 H31         -2.5190    -0.8840    -0.4580 hc         1 ELD       0.072200
     26 H32         -2.5190     0.8850    -0.4570 hc         1 ELD       0.072200
     27 H41         -2.7610     0.8860    -2.9180 hc         1 ELD       0.048700
     28 H42         -2.7610    -0.8830    -2.9190 hc         1 ELD       0.048700
     29 H51         -4.7890     0.8850    -1.5020 hc         1 ELD       0.053200
     30 H52         -4.7890    -0.8840    -1.5020 hc         1 ELD       0.053200
     31 H61         -5.0300    -0.8850    -3.9620 hc         1 ELD       0.043700
     32 H62         -5.0290     0.8840    -3.9640 hc         1 ELD       0.043700
     33 H71         -7.0590    -0.8820    -2.5470 hc         1 ELD       0.060700
     34 H72         -7.0580     0.8870    -2.5480 hc         1 ELD       0.060700
     35 H81         -7.2990    -0.8840    -5.0080 hc         1 ELD       0.033700
     36 H82         -7.2990     0.8850    -5.0090 hc         1 ELD       0.033700
     37 H9          -8.6420    -0.4680    -5.0550 ha         1 ELD       0.324000
     38 H10         -9.2820     1.8130    -4.4070 ha         1 ELD       0.331000
     39 H111        -8.2400     1.5520    -5.9950 hc         1 ELD       0.033200
     40 H112        -9.2200     2.8650    -5.3270 hc         1 ELD       0.033200
     41 H121       -11.1300     2.1490    -6.7240 hc         1 ELD       0.061700
     42 H122       -10.1510     0.8370    -7.3920 hc         1 ELD       0.061700
     43 H131        -9.5260     3.8040    -7.6220 hc         1 ELD       0.039200
     44 H132        -8.5460     2.4910    -8.2900 hc         1 ELD       0.039200
     45 H141       -11.4380     3.0860    -9.0190 hc         1 ELD       0.047200
     46 H142       -10.4570     1.7740    -9.6870 hc         1 ELD       0.047200
     47 H151        -9.8340     4.7420    -9.9170 hc         1 ELD       0.040200
     48 H152        -8.8530     3.4300   -10.5840 hc         1 ELD       0.040200
     49 H161       -11.7440     4.0250   -11.3150 hc         1 ELD       0.043700
     50 H162       -10.7640     2.7130   -11.9820 hc         1 ELD       0.043700
     51 H171       -10.1390     5.6800   -12.2130 hc         1 ELD       0.038700
     52 H172        -9.1600     4.3670   -12.8810 hc         1 ELD       0.038700
     53 H181       -12.0510     4.9640   -13.6090 hc         1 ELD       0.034700
     54 H182       -11.0720     3.6510   -14.2770 hc         1 ELD       0.034700
     55 H183       -10.6400     5.3340   -14.6100 hc         1 ELD       0.034700
     56 H13          1.6820    -0.0030     0.9440 hn         1 ELD       0.478467
@<TRIPOS>BOND
     1     1     2 1
     2     1     3 2
     3     1     4 1
     4     2    21 1
     5     2    22 1
     6     4     5 1
     7     4    23 1
     8     4    24 1
     9     5     6 1
    10     5    25 1
    11     5    26 1
    12     6     7 1
    13     6    27 1
    14     6    28 1
    15     7     8 1
    16     7    29 1
    17     7    30 1
    18     8     9 1
    19     8    31 1
    20     8    32 1
    21     9    10 1
    22     9    33 1
    23     9    34 1
    24    10    11 1
    25    10    35 1
    26    10    36 1
    27    11    12 2
    28    11    37 1
    29    12    13 1
    30    12    38 1
    31    13    14 1
    32    13    39 1
    33    13    40 1
    34    14    15 1
    35    14    41 1
    36    14    42 1
    37    15    16 1
    38    15    43 1
    39    15    44 1
    40    16    17 1
    41    16    45 1
    42    16    46 1
    43    17    18 1
    44    17    47 1
    45    17    48 1
    46    18    19 1
    47    18    49 1
    48    18    50 1
    49    19    20 1
    50    19    51 1
    51    19    52 1
    52    20    53 1
    53    20    54 1
    54    20    55 1
    55    56     2 1
@<TRIPOS>SUBSTRUCTURE
     1 ELD         1 TEMP              0 ****  ****    0 ROOT
