@<TRIPOS>MOLECULE
ELD
   56    55     1     0     0
SMALL
bcc


@<TRIPOS>ATOM
      1 C1           0.0000     0.0000     0.0000 c          1 ELD       0.305100
      2 N1           1.3480     0.0000     0.0000 nz         1 ELD       0.195600
      3 O2          -0.6060     0.0000     1.0510 o          1 ELD      -0.386100
      4 C2          -0.7540     0.0000    -1.3050 c3         1 ELD      -0.089400
      5 C3          -2.2570     0.0000    -1.0250 c3         1 ELD      -0.019400
      6 C4          -3.0230     0.0010    -2.3500 c3         1 ELD      -0.025400
      7 C5          -4.5270     0.0010    -2.0700 c3         1 ELD      -0.025400
      8 C6          -5.2920     0.0000    -3.3950 c3         1 ELD      -0.028400
      9 C7          -6.7960     0.0020    -3.1160 c3         1 ELD      -0.022400
     10 C8          -7.5610     0.0010    -4.4400 c3         1 ELD      -0.002200
     11 C9          -9.0430     0.0010    -4.1650 c2         1 ELD      -0.170200
     12 C10         -9.8100     0.9160    -4.7050 c2         1 ELD      -0.142200
     13 C11         -9.2450     1.8610    -5.7340 c3         1 ELD      -0.006200
     14 C12        -10.1250     1.8400    -6.9850 c3         1 ELD      -0.024400
     15 C13         -9.5510     2.8000    -8.0290 c3         1 ELD      -0.029400
     16 C14        -10.4330     2.7780    -9.2800 c3         1 ELD      -0.029400
     17 C15         -9.8580     3.7380   -10.3240 c3         1 ELD      -0.029400
     18 C16        -10.7390     3.7160   -11.5750 c3         1 ELD      -0.030400
     19 C17        -10.1650     4.6760   -12.6200 c3         1 ELD      -0.028400
     20 C18        -11.0460     4.6550   -13.8700 c3         1 ELD       0.005900
     21 HN11         1.6820     0.8070    -0.4880 hn         1 ELD       0.247467
     22 HN12         1.6820    -0.8270    -0.4550 hn         1 ELD       0.247467
     23 H21         -0.4920    -0.8840    -1.8730 hc         1 ELD       0.056700
     24 H22         -0.4920     0.8850    -1.8730 hc         1 ELD       0.056700
     25 H31         -2.5190    -0.8840    -0.4580 hc         1 ELD       0.038700
     26 H32         -2.5190     0.8850    -0.4570 hc         1 ELD       0.038700
     27 H41         -2.7610     0.8860    -2.9180 hc         1 ELD       0.019700
     28 H42         -2.7610    -0.8830    -2.9190 hc         1 ELD       0.019700
     29 H51         -4.7890     0.8850    -1.5020 hc         1 ELD       0.021200
     30 H52         -4.7890    -0.8840    -1.5020 hc         1 ELD       0.021200
     31 H61         -5.0300    -0.8850    -3.9620 hc         1 ELD       0.016200
     32 H62         -5.0290     0.8840    -3.9640 hc         1 ELD       0.016200
     33 H71         -7.0590    -0.8820    -2.5470 hc         1 ELD       0.017700
     34 H72         -7.0580     0.8870    -2.5480 hc         1 ELD       0.017700
     35 H81         -7.2990    -0.8840    -5.0080 hc         1 ELD       0.027700
     36 H82         -7.2990     0.8850    -5.0090 hc         1 ELD       0.027700
     37 H9          -9.4530    -0.6770    -3.4260 ha         1 ELD       0.105000
     38 H10        -10.8740     0.9130    -4.5050 ha         1 ELD       0.107000
     39 H111        -8.2400     1.5520    -5.9950 hc         1 ELD       0.024700
     40 H112        -9.2200     2.8640    -5.3270 hc         1 ELD       0.024700
     41 H121       -11.1300     2.1490    -6.7240 hc         1 ELD       0.018200
     42 H122       -10.1510     0.8370    -7.3920 hc         1 ELD       0.018200
     43 H131        -9.5260     3.8040    -7.6220 hc         1 ELD       0.012700
     44 H132        -8.5460     2.4910    -8.2900 hc         1 ELD       0.012700
     45 H141       -11.4380     3.0860    -9.0190 hc         1 ELD       0.016700
     46 H142       -10.4570     1.7740    -9.6870 hc         1 ELD       0.016700
     47 H151        -9.8340     4.7420    -9.9170 hc         1 ELD       0.013700
     48 H152        -8.8530     3.4300   -10.5840 hc         1 ELD       0.013700
     49 H161       -11.7440     4.0250   -11.3150 hc         1 ELD       0.016200
     50 H162       -10.7640     2.7130   -11.9820 hc         1 ELD       0.016200
     51 H171       -10.1390     5.6800   -12.2130 hc         1 ELD       0.011200
     52 H172        -9.1600     4.3670   -12.8810 hc         1 ELD       0.011200
     53 H181       -12.0530     4.9570   -13.6070 hc         1 ELD       0.001033
     54 H182       -11.0660     3.6530   -14.2810 hc         1 ELD       0.001033
     55 H183       -10.6440     5.3390   -14.6070 hc         1 ELD       0.001033
     56 H13          1.6820     0.0170     0.9430 hn         1 ELD       0.247467
@<TRIPOS>BOND
     1     1     2 1   
     2     1     3 2   
     3     1     4 1   
     4     2    21 1   
     5     2    22 1   
     6     2    56 1   
     7     4     5 1   
     8     4    23 1   
     9     4    24 1   
    10     5     6 1   
    11     5    25 1   
    12     5    26 1   
    13     6     7 1   
    14     6    27 1   
    15     6    28 1   
    16     7     8 1   
    17     7    29 1   
    18     7    30 1   
    19     8     9 1   
    20     8    31 1   
    21     8    32 1   
    22     9    10 1   
    23     9    33 1   
    24     9    34 1   
    25    10    11 1   
    26    10    35 1   
    27    10    36 1   
    28    11    12 2   
    29    11    37 1   
    30    12    13 1   
    31    12    38 1   
    32    13    14 1   
    33    13    39 1   
    34    13    40 1   
    35    14    15 1   
    36    14    41 1   
    37    14    42 1   
    38    15    16 1   
    39    15    43 1   
    40    15    44 1   
    41    16    17 1   
    42    16    45 1   
    43    16    46 1   
    44    17    18 1   
    45    17    47 1   
    46    17    48 1   
    47    18    19 1   
    48    18    49 1   
    49    18    50 1   
    50    19    20 1   
    51    19    51 1   
    52    19    52 1   
    53    20    53 1   
    54    20    54 1   
    55    20    55 1   
@<TRIPOS>SUBSTRUCTURE
     1 ELD         1 TEMP              0 ****  ****    0 ROOT
