@<TRIPOS>MOLECULE
molecule
   24    23     1     0     0
SMALL
bcc


@<TRIPOS>ATOM
      1 C4           1.4290     0.0000     0.0000 c3         1 ELE       0.147100
      2 C5           1.9390     0.0000     1.4430 c3         1 ELE       0.121100
      3 C6           1.4290    -1.2490     2.1640 c3         1 ELE       0.206400
      4 C3           1.9400     1.2480    -0.7210 c3         1 ELE      -0.192400
      5 C1           1.9230     2.2940    -3.0970 c          1 ELE       0.807600
      6 C2           1.5420     1.1880    -2.1730 c          1 ELE       0.480100
      7 O11          2.5520     3.2420    -2.6800 o          1 ELE      -0.840300
      8 O12          1.5670     2.2400    -4.3940 o          1 ELE      -0.840300
      9 O1P          1.8990    -1.8910     6.0740 o          1 ELE      -0.923167
     10 O2P          2.1860    -3.7090     4.1970 o          1 ELE      -0.923167
     11 O3P         -0.0300    -2.5670     4.5940 o          1 ELE      -0.923167
     12 O4           0.0000     0.0000     0.0000 oh         1 ELE      -0.608800
     13 O5           3.3680     0.0000     1.4440 oh         1 ELE      -0.616800
     14 O6           1.8050    -1.1920     3.5410 os         1 ELE      -0.589200
     15 P            1.4330    -2.3450     4.6010 p5         1 ELE       1.202900
     16 H4           1.7900    -0.8850    -0.5110 h1         1 ELE       0.043700
     17 H5           1.5780     0.8850     1.9530 h1         1 ELE       0.033700
     18 H62          1.8610    -2.1310     1.7080 h1         1 ELE       0.019700
     19 H61          0.3490    -1.2950     2.0870 h1         1 ELE       0.019700
     20 H32          3.0200     1.2940    -0.6440 hc         1 ELE       0.070200
     21 H31          1.5080     2.1310    -0.2650 hc         1 ELE       0.070200
     22 HO4         -0.3140    -0.7940    -0.3990 ho         1 ELE       0.399000
     23 HO5          3.6820     0.6090     2.0920 ho         1 ELE       0.395000
     24 O2           0.9140     0.2430    -2.5890 o          1 ELE      -0.561100
@<TRIPOS>BOND
     1    11    15 1
     2    10    15 1
     3    15    14 1
     4    15     9 1
     5    14     3 1
     6     7     5 1
     7     8     5 1
     8     3     2 1
     9     5     6 1
    10    12     1 1
    11     2     1 1
    12     2    13 1
    13     6     4 1
    14     1     4 1
    15     1    16 1
    16     2    17 1
    17     3    18 1
    18     3    19 1
    19     4    20 1
    20     4    21 1
    21    12    22 1
    22    13    23 1
    23     6    24 2
@<TRIPOS>SUBSTRUCTURE
     1 ELE         1 TEMP              0 ****  ****    0 ROOT
