@<TRIPOS>MOLECULE
molecule
   26    28     1     0     0
SMALL
bcc


@<TRIPOS>ATOM
      1 CAC          0.0000     0.0000     0.0000 ca         1 ELH      -0.122000
      2 CAD          1.3930     0.0000     0.0000 ca         1 ELH      -0.146000
      3 CAE         -0.0110     0.0220     4.7900 ca         1 ELH      -0.126000
      4 CAF          1.3790     0.0220     4.8080 ca         1 ELH      -0.134000
      5 CAG         -0.7000     0.0050     1.1680 ca         1 ELH      -0.142000
      6 CAH         -0.7010     0.0160     3.6170 ca         1 ELH      -0.132000
      7 CAI          2.0940     0.0000     1.1690 ca         1 ELH      -0.073000
      8 CAJ          5.9930     0.3570     4.0050 cc         1 ELH      -0.169400
      9 CAN          5.6440    -0.6210     3.1210 cd         1 ELH       0.348800
     10 CAO          3.5760     0.0070     3.6510 cc         1 ELH       0.460900
     11 CAP          2.1000     0.0070     3.6250 ca         1 ELH      -0.063500
     12 CAQ         -0.0110     0.0110     2.3920 ca         1 ELH      -0.033000
     13 CAR          1.4060     0.0000     2.3900 ca         1 ELH      -0.018000
     14 NAK          4.3380    -0.7820     2.9560 nd         1 ELH      -0.596000
     15 OAA          6.2360    -2.3900     1.5450 o          1 ELH      -0.818300
     16 OAB          7.8260    -1.2490     2.5950 o          1 ELH      -0.818300
     17 SAL          4.5740     1.0740     4.6330 ss         1 ELH      -0.318300
     18 H1          -0.5340    -0.0000    -0.9430 ha         1 ELH       0.115000
     19 H2           1.9270    -0.0040    -0.9430 ha         1 ELH       0.130000
     20 H3          -0.5550     0.0330     5.7270 ha         1 ELH       0.117000
     21 H4           1.9040     0.0260     5.7560 ha         1 ELH       0.134000
     22 H5          -1.7830     0.0050     1.1530 ha         1 ELH       0.118000
     23 H6          -1.7840     0.0160     3.6260 ha         1 ELH       0.119000
     24 H7           3.1770     0.0000     1.1540 ha         1 ELH       0.179000
     25 H8           7.0060     0.6330     4.2700 h4         1 ELH       0.191000
     26 CAM          6.6400    -1.4360     2.4080 c          1 ELH       0.796100
@<TRIPOS>BOND
     1     6     3 ar
     2     6    12 ar
     3     5    12 ar
     4     5     1 ar
     5     3     4 ar
     6    12    13 ar
     7     1     2 ar
     8     4    11 ar
     9    13    11 ar
    10    13     7 ar
    11     2     7 ar
    12    11    10 1
    13    10    14 2
    14    10    17 1
    15    14     9 1
    16    17     8 1
    17     9     8 2
    18     9    26 1
    19    16    26 1
    20    26    15 1
    21     1    18 1
    22     2    19 1
    23     3    20 1
    24     4    21 1
    25     5    22 1
    26     6    23 1
    27     7    24 1
    28     8    25 1
@<TRIPOS>SUBSTRUCTURE
     1 ELH         1 TEMP              0 ****  ****    0 ROOT
