@<TRIPOS>MOLECULE
ELI
   38    39     1     0     0
SMALL
bcc


@<TRIPOS>ATOM
      1 C1          0.0820   -1.1980    0.0930 ca        1 ELI     -0.120000
      2 C2          1.4600   -0.9850    0.1610 ca        1 ELI     -0.087000
      3 C3          2.0690   -0.7350    1.3940 ca        1 ELI     -0.127600
      4 C4          1.2940   -0.7060    2.5640 ca        1 ELI     -0.132600
      5 C5         -0.0840   -0.9330    2.4890 ca        1 ELI     -0.088000
      6 C6         -0.6880   -1.1730    1.2540 ca        1 ELI     -0.124000
      7 C10         3.5310   -0.5110    1.4680 c         1 ELI      0.569900
      8 C11         1.9310   -0.4350    3.8720 c         1 ELI      0.573900
      9 C14         3.2870    0.1640    3.8300 cc        1 ELI     -0.143400
     10 C15         4.0290    0.1490    2.7010 cd        1 ELI     -0.115400
     11 O16         1.3480   -0.6830    4.9360 o         1 ELI     -0.527100
     12 C17         3.7730    0.7720    5.0920 c3        1 ELI     -0.065900
     13 C18         5.3810    0.7670    2.6140 c3        1 ELI     -0.056200
     14 C19         5.3030    2.2450    2.2710 c3        1 ELI     -0.072400
     15 C20         6.6790    2.8780    2.2800 c3        1 ELI     -0.079400
     16 C23         6.6010    4.3660    2.0080 c3        1 ELI     -0.065400
     17 C26         7.9620    5.0160    2.0440 c3        1 ELI     -0.195400
     18 C43         7.8840    6.4960    1.6290 c         1 ELI      0.908600
     19 O44         7.1920    6.8020    0.6140 o         1 ELI     -0.851800
     20 O45         8.5330    7.3340    2.3180 o         1 ELI     -0.851800
     21 H1         -0.3940   -1.3850   -0.8810 ha        1 ELI      0.136000
     22 H2          2.0810   -1.0120   -0.7500 ha        1 ELI      0.158000
     23 H5         -0.6810   -0.9190    3.4150 ha        1 ELI      0.154000
     24 H6         -1.7730   -1.3420    1.2010 ha        1 ELI      0.135000
     25 H171        2.9900    0.7300    5.8890 hc        1 ELI      0.059700
     26 H172        4.6790    0.2240    5.4580 hc        1 ELI      0.059700
     27 H173        4.0600    1.8410    4.9230 hc        1 ELI      0.059700
     28 H181        5.9860    0.2380    1.8280 hc        1 ELI      0.062700
     29 H182        5.9170    0.6410    3.5930 hc        1 ELI      0.062700
     30 H191        4.6430    2.7720    3.0090 hc        1 ELI      0.042200
     31 H192        4.8390    2.3730    1.2580 hc        1 ELI      0.042200
     32 H201        7.1670    2.7030    3.2750 hc        1 ELI      0.029200
     33 H202        7.3230    2.3860    1.5050 hc        1 ELI      0.029200
     34 H231        5.9370    4.8510    2.7700 hc        1 ELI      0.045200
     35 H232        6.1400    4.5530    1.0020 hc        1 ELI      0.045200
     36 H261        8.4030    4.9410    3.0690 hc        1 ELI      0.019200
     37 H262        8.6540    4.4960    1.3330 hc        1 ELI      0.019200
     38 O7          4.2850   -0.8660    0.5530 o         1 ELI     -0.508100
@<TRIPOS>BOND
     1    1    2 ar  
     2    1    6 ar  
     3    1   21 1   
     4    2    3 ar  
     5    2   22 1   
     6    3    4 ar  
     7    3    7 1   
     8    4    5 ar  
     9    4    8 1   
    10    5    6 ar  
    11    5   23 1   
    12    6   24 1   
    13    7   10 1   
    14    7   38 2   
    15    8    9 1   
    16    8   11 2   
    17    9   10 2   
    18    9   12 1   
    19   10   13 1   
    20   12   25 1   
    21   12   26 1   
    22   12   27 1   
    23   13   14 1   
    24   13   28 1   
    25   13   29 1   
    26   14   15 1   
    27   14   30 1   
    28   14   31 1   
    29   15   16 1   
    30   15   32 1   
    31   15   33 1   
    32   16   17 1   
    33   16   34 1   
    34   16   35 1   
    35   17   18 1   
    36   17   36 1   
    37   17   37 1   
    38   18   19 1   
    39   18   20 1   
@<TRIPOS>SUBSTRUCTURE
     1 ELI         1 TEMP              0 ****  ****    0 ROOT
