@<TRIPOS>MOLECULE
molecule
   38    39     1     0     0
SMALL
bcc


@<TRIPOS>ATOM
      1 C1           0.0000     0.0000     0.0000 ca         1 ELI      -0.130000
      2 C2           1.5090     0.0000     0.0000 ca         1 ELI      -0.082000
      3 C3           2.2630     0.0000     1.2920 ca         1 ELI      -0.116600
      4 C4           1.4380    -0.0020     2.6620 ca         1 ELI      -0.124600
      5 C5          -0.0710    -0.0040     2.6200 ca         1 ELI      -0.094000
      6 C6          -0.7830    -0.0030     1.3030 ca         1 ELI      -0.133000
      7 C10          3.8490    -0.0030     1.3280 c          1 ELI       0.563900
      8 C11          2.1920    -0.0040     4.0710 c          1 ELI       0.565900
      9 C14          3.8180     0.0020     4.0900 cc         1 ELI      -0.158400
     10 C15          4.5770     0.0010     2.7970 cd         1 ELI      -0.094400
     11 O16          1.5370    -0.0080     5.1340 o          1 ELI      -0.539100
     12 C17          4.4070     0.0110     5.5220 c3         1 ELI      -0.029900
     13 C18          6.0850     0.0150     2.7260 c3         1 ELI      -0.016200
     14 C19          6.3510     1.5910     2.5440 c3         1 ELI      -0.160400
     15 C20          6.9250     2.9030     2.7030 c3         1 ELI      -0.010400
     16 C23          6.3640     3.3930     1.5140 c3         1 ELI      -0.097400
     17 C26          6.4790     4.8530     1.8500 c3         1 ELI      -0.216400
     18 C43          6.3050     5.9330     0.8920 c          1 ELI       0.929600
     19 O44          5.9900     5.9740    -0.1560 o          1 ELI      -0.854800
     20 O45          6.6170     7.0680     1.5000 o          1 ELI      -0.854800
     21 H1          -0.5340     0.0000    -0.9430 ha         1 ELI       0.139000
     22 H2           2.0480     0.0020    -0.9400 ha         1 ELI       0.162000
     23 H5          -0.6390    -0.0060     3.5430 ha         1 ELI       0.155000
     24 H6          -1.8660    -0.0030     1.2790 ha         1 ELI       0.138000
     25 H171         5.3630    -0.4970     5.5230 hc         1 ELI       0.053033
     26 H172         4.5410     1.0340     5.8510 hc         1 ELI       0.053033
     27 H173         3.7270    -0.4980     6.1950 hc         1 ELI       0.053033
     28 H181         6.4410    -0.5430     1.8690 hc         1 ELI       0.055700
     29 H182         6.5220    -0.3510     3.6470 hc         1 ELI       0.055700
     30 H191         6.4500     1.5600     1.4660 hc         1 ELI       0.029700
     31 H192         5.3300     1.8960     2.7380 hc         1 ELI       0.029700
     32 H201         6.5420     3.4150     3.5780 hc         1 ELI       0.043700
     33 H202         8.0070     2.8830     2.6670 hc         1 ELI       0.043700
     34 H231         5.3300     3.0880     1.4020 hc         1 ELI       0.045700
     35 H232         6.9630     3.1320     0.6500 hc         1 ELI       0.045700
     36 H261         5.7640     5.0370     2.6430 hc         1 ELI       0.033700
     37 H262         7.4650     4.9870     2.2780 hc         1 ELI       0.033700
     38 O7           4.5170    -0.0030     0.2430 o          1 ELI      -0.516100
@<TRIPOS>BOND
     1     1     2 ar
     2     1     6 ar
     3     1    21 1
     4     2     3 ar
     5     2    22 1
     6     3     4 ar
     7     3     7 1
     8     4     5 ar
     9     4     8 1
    10     5     6 ar
    11     5    23 1
    12     6    24 1
    13    38     7 2
    14     7    10 1
    15     8     9 1
    16     8    11 2
    17     9    10 2
    18     9    12 1
    19    10    13 1
    20    12    25 1
    21    12    26 1
    22    12    27 1
    23    13    14 1
    24    13    28 1
    25    13    29 1
    26    14    15 1
    27    14    30 1
    28    14    31 1
    29    15    16 1
    30    15    32 1
    31    15    33 1
    32    16    17 1
    33    16    34 1
    34    16    35 1
    35    17    18 1
    36    17    36 1
    37    17    37 1
    38    18    19 1
    39    18    20 1
@<TRIPOS>SUBSTRUCTURE
     1 ELI         1 TEMP              0 ****  ****    0 ROOT
