@<TRIPOS>MOLECULE
ELP
   44    46     1     0     0
SMALL
bcc


@<TRIPOS>ATOM
      1 C3           0.0000     0.0000     0.0000 c2         1 ELP      -0.026000
      2 C2           1.3870     0.0000     0.0000 c2         1 ELP      -0.198000
      3 N1           2.0610     0.0000     1.1320 n2         1 ELP      -0.115000
      4 C6           1.4620    -0.0060     2.3060 c2         1 ELP      -0.122000
      5 C4          -0.6780    -0.0130     1.2300 c3         1 ELP      -0.144000
      6 C4A         -2.1520    -0.0210     1.2840 c2         1 ELP      -0.278000
      7 N2          -2.8390    -0.0210     0.1890 n2         1 ELP       0.023000
      8 C           -4.3030    -0.0280     0.2420 c3         1 ELP      -0.337000
      9 CA1         -4.7920     1.2160     0.9850 c3         1 ELP      -0.075000
     10 CA2         -4.8570    -0.0270    -1.1590 ca         1 ELP       0.096000
     11 P2          -4.8710    -1.5210     1.1190 p5         1 ELP       0.789500
     12 O6          -4.2650    -1.5620     2.4690 o          1 ELP      -0.687167
     13 O7          -6.4760    -1.4870     1.2530 o          1 ELP      -0.687167
     14 O8          -4.4290    -2.8300     0.2920 o          1 ELP      -0.687167
     15 O1          -0.6900     0.0000    -1.1690 oh         1 ELP      -0.228000
     16 C2A          2.1320     0.0070    -1.3100 c3         1 ELP      -0.034000
     17 C5           0.0860    -0.0130     2.4030 c2         1 ELP      -0.008000
     18 C5A         -0.5850    -0.0200     3.7510 c3         1 ELP       0.103000
     19 O2           0.4080    -0.0180     4.7780 os         1 ELP      -0.648000
     20 P1          -0.3760    -0.0250     6.1840 p5         1 ELP       0.908500
     21 O3          -1.2190    -1.2360     6.2720 o          1 ELP      -0.769833
     22 O4           0.6890    -0.0220     7.3920 o          1 ELP      -0.769833
     23 O5          -1.3050     1.2850     6.2870 o          1 ELP      -0.769833
     24 CB2         -6.1360     0.4410    -1.3960 ca         1 ELP      -0.094000
     25 CG2         -6.6440     0.4420    -2.6820 ca         1 ELP      -0.153500
     26 CD          -5.8740    -0.0240    -3.7300 ca         1 ELP      -0.225000
     27 CG1         -4.5950    -0.4900    -3.4930 ca         1 ELP      -0.153500
     28 CB1         -4.0850    -0.4880    -2.2080 ca         1 ELP      -0.094000
     29 HC6          2.0590    -0.0050     3.2100 h4         1 ELP       0.152000
     30 H4A         -1.5430    -0.8920     1.0760 DU         1 ELP       0.274000
     31 HA11        -4.2790     1.2950     1.9360 hc         1 ELP       0.038667
     32 HA12        -5.8590     1.1390     1.1570 hc         1 ELP       0.038667
     33 HA13        -4.5850     2.0970     0.3890 hc         1 ELP       0.038667
     34 HO1         -0.6780     0.8670    -1.5400 ho         1 ELP       0.169000
     35 H2A1         1.7880    -0.8140    -1.9260 hc         1 ELP       0.019000
     36 H2A2         1.9520     0.9440    -1.8230 hc         1 ELP       0.019000
     37 H2A3         3.1940    -0.1030    -1.1230 hc         1 ELP       0.019000
     38 H5A1        -1.1990    -0.9080     3.8440 h1         1 ELP       0.106500
     39 H5A2        -1.2080     0.8610     3.8490 h1         1 ELP       0.106500
     40 HB2         -6.7480     0.7870    -0.5720 ha         1 ELP       0.122000
     41 HG2         -7.6460     0.8100    -2.8680 ha         1 ELP       0.055500
     42 HCD         -6.2700    -0.0160    -4.7380 ha         1 ELP       0.048000
     43 HG1         -3.9820    -0.8340    -4.3180 ha         1 ELP       0.055500
     44 HB1         -3.2190    -1.1150    -2.3830 ha         1 ELP       0.122000
@<TRIPOS>BOND
     1     1     2 1   
     2     1     5 1   
     3     1    15 1   
     4     2     3 1   
     5     2    16 1   
     6     3     4 1   
     7     4    17 1   
     8     4    29 1   
     9     5     6 1   
    10     5    17 1   
    11     5    30 1   
    12     6     7 1   
    13     6    30 1   
    14     7     8 1   
    15     8     9 1   
    16     8    10 1   
    17     8    11 1   
    18     9    31 1   
    19     9    32 1   
    20     9    33 1   
    21    10    24 1   
    22    10    28 1   
    23    11    12 1   
    24    11    13 1   
    25    11    14 1   
    26    15    34 1   
    27    16    35 1   
    28    16    36 1   
    29    16    37 1   
    30    17    18 1   
    31    18    19 1   
    32    18    38 1   
    33    18    39 1   
    34    19    20 1   
    35    20    21 1   
    36    20    22 1   
    37    20    23 1   
    38    24    25 1   
    39    24    40 1   
    40    25    26 1   
    41    25    41 1   
    42    26    27 1   
    43    26    42 1   
    44    27    28 1   
    45    27    43 1   
    46    28    44 1   
@<TRIPOS>SUBSTRUCTURE
     1 ELP         1 TEMP              0 ****  ****    0 ROOT
