@<TRIPOS>MOLECULE
molecule
   44    45     1     0     0
SMALL
bcc


@<TRIPOS>ATOM
      1 C3           0.0000     0.0000     0.0000 ca         1 ELP      -0.009200
      2 C2           1.3870     0.0000     0.0000 ca         1 ELP       0.306600
      3 N1           2.0610     0.0000     1.1320 nb         1 ELP      -0.745000
      4 C6           1.4620    -0.0060     2.3060 ca         1 ELP       0.395200
      5 C4          -0.6780    -0.0130     1.2300 ca         1 ELP      -0.095900
      6 C4A         -2.1520    -0.0210     1.2840 ce         1 ELP       0.420800
      7 N2          -2.8390    -0.0210     0.1890 n2         1 ELP      -0.570900
      8 C           -4.3030    -0.0280     0.2420 c3         1 ELP       0.046300
      9 CA1         -4.7920     1.2160     0.9850 c3         1 ELP      -0.067100
     10 CA2         -4.8570    -0.0270    -1.1590 ca         1 ELP       0.074700
     11 P2          -4.8710    -1.5210     1.1190 p5         1 ELP       0.976700
     12 O6          -4.2650    -1.5620     2.4690 o          1 ELP      -0.873167
     13 O7          -6.4760    -1.4870     1.2530 o          1 ELP      -0.873167
     14 O8          -4.4290    -2.8300     0.2920 o          1 ELP      -0.873167
     15 O1          -0.6900     0.0000    -1.1690 oh         1 ELP      -0.484100
     16 C2A          2.1320     0.0070    -1.3100 c3         1 ELP      -0.116400
     17 C5           0.0860    -0.0130     2.4030 ca         1 ELP      -0.124600
     18 C5A         -0.5850    -0.0200     3.7510 c3         1 ELP       0.178700
     19 O2           0.4080    -0.0180     4.7780 os         1 ELP      -0.570200
     20 P1          -0.3760    -0.0250     6.1840 p5         1 ELP       1.169900
     21 O3          -1.2190    -1.2360     6.2720 o          1 ELP      -0.918167
     22 O4           0.6890    -0.0220     7.3920 o          1 ELP      -0.918167
     23 O5          -1.3050     1.2850     6.2870 o          1 ELP      -0.918167
     24 CB2         -6.1360     0.4410    -1.3960 ca         1 ELP      -0.088000
     25 CG2         -6.6440     0.4420    -2.6820 ca         1 ELP      -0.178000
     26 CD          -5.8740    -0.0240    -3.7300 ca         1 ELP      -0.209000
     27 CG1         -4.5950    -0.4900    -3.4930 ca         1 ELP      -0.178000
     28 CB1         -4.0850    -0.4880    -2.2080 ca         1 ELP      -0.088000
     29 HC6          2.0590    -0.0050     3.2100 h4         1 ELP       0.052100
     30 H4A         -2.6590    -0.0260     2.2420 h4         1 ELP       0.069800
     31 HA11        -4.5610     2.0990     0.4020 hc         1 ELP       0.024700
     32 HA12        -5.8630     1.1510     1.1330 hc         1 ELP       0.024700
     33 HA13        -4.2980     1.2800     1.9470 hc         1 ELP       0.024700
     34 HO1         -0.7130     0.8750    -1.5200 ho         1 ELP       0.383000
     35 H2A1         1.9480     0.9420    -1.8250 hc         1 ELP       0.017367
     36 H2A2         1.7910    -0.8170    -1.9240 hc         1 ELP       0.017367
     37 H2A3         3.1940    -0.0980    -1.1220 hc         1 ELP       0.017367
     38 H5A1        -1.2080     0.8610     3.8490 h1         1 ELP       0.093700
     39 H5A2        -1.1990    -0.9080     3.8440 h1         1 ELP       0.093700
     40 HB2         -6.7480     0.7880    -0.5720 ha         1 ELP       0.148500
     41 HG2         -7.6460     0.8100    -2.8680 ha         1 ELP       0.075000
     42 HCD         -6.2700    -0.0160    -4.7380 ha         1 ELP       0.059000
     43 HG1         -3.9820    -0.8330    -4.3180 ha         1 ELP       0.075000
     44 HB1         -3.2200    -1.1170    -2.3830 ha         1 ELP       0.148500
@<TRIPOS>BOND
     1     1     2 ar
     2     1     5 ar
     3     1    15 1
     4     2     3 ar
     5     2    16 1
     6     3     4 ar
     7     4    17 ar
     8     4    29 1
     9     5     6 1
    10     5    17 ar
    11     6     7 2
    12     6    30 1
    13     7     8 1
    14     8     9 1
    15     8    10 1
    16     8    11 1
    17     9    31 1
    18     9    32 1
    19     9    33 1
    20    10    24 ar
    21    10    28 ar
    22    11    12 1
    23    11    13 1
    24    11    14 1
    25    15    34 1
    26    16    35 1
    27    16    36 1
    28    16    37 1
    29    17    18 1
    30    18    19 1
    31    18    38 1
    32    18    39 1
    33    19    20 1
    34    20    21 1
    35    20    22 1
    36    20    23 1
    37    24    25 ar
    38    24    40 1
    39    25    26 ar
    40    25    41 1
    41    26    27 ar
    42    26    42 1
    43    27    28 ar
    44    27    43 1
    45    28    44 1
@<TRIPOS>SUBSTRUCTURE
     1 ELP         1 TEMP              0 ****  ****    0 ROOT
