@<TRIPOS>MOLECULE
molecule
   31    32     1     0     0
SMALL
bcc


@<TRIPOS>ATOM
      1 C10          0.0000     0.0000     0.0000 ca         1 ELQ      -0.132600
      2 C13          1.3880    -0.0110     2.3990 ca         1 ELQ       0.115900
      3 C15          1.3970     0.0000     0.0000 ca         1 ELQ      -0.092000
      4 C03         -2.9350     2.0710    -3.1400 c3         1 ELQ       0.144800
      5 C04         -2.6850     0.6520    -2.6230 c3         1 ELQ       0.102500
      6 C06         -2.3000     1.6400    -0.3330 c3         1 ELQ       0.102500
      7 C07         -2.5640     3.0220    -0.9400 c3         1 ELQ       0.144800
      8 C08         -0.7410    -0.0000    -1.2780 c          1 ELQ       0.677700
      9 C11         -0.6940    -0.0060     1.2120 ca         1 ELQ      -0.102000
     10 C12          0.0020    -0.0110     2.4030 ca         1 ELQ      -0.156000
     11 C14          2.0830     0.0000     1.1970 ca         1 ELQ       0.090900
     12 F16          3.4350    -0.0000     1.2000 f          1 ELQ      -0.123900
     13 F17          2.0650    -0.0100     3.5680 f          1 ELQ      -0.123900
     14 N02         -3.5050     2.8890    -2.0600 n3         1 ELQ      -0.732600
     15 N05         -1.8640     0.7340    -1.4060 n          1 ELQ      -0.486800
     16 O09         -0.3380    -0.6640    -2.2140 o          1 ELQ      -0.600100
     17 H1           1.9400     0.0090    -0.9370 ha         1 ELQ       0.172000
     18 H2          -4.3670     4.7750    -1.7540 h1         1 ELQ       0.034367
     19 H3          -3.0520     4.7380    -2.9370 h1         1 ELQ       0.034367
     20 H4          -4.6400     4.0810    -3.3580 h1         1 ELQ       0.034367
     21 H5          -1.9970     2.5060    -3.4650 h1         1 ELQ       0.044200
     22 H6          -3.6300     2.0350    -3.9700 h1         1 ELQ       0.044200
     23 H7          -2.1600     0.0780    -3.3770 h1         1 ELQ       0.064950
     24 H8          -3.6320     0.1780    -2.3910 h1         1 ELQ       0.064950
     25 H9          -1.5220     1.7160     0.4170 h1         1 ELQ       0.064950
     26 H10         -3.2100     1.2610     0.1160 h1         1 ELQ       0.064950
     27 H11         -1.6330     3.4420    -1.2990 h1         1 ELQ       0.044200
     28 H12         -2.9920     3.6710    -0.1850 h1         1 ELQ       0.044200
     29 H13         -1.7770    -0.0050     1.2170 ha         1 ELQ       0.151000
     30 H14         -0.5360    -0.0170     3.3430 ha         1 ELQ       0.156000
     31 C01         -3.9180     4.2070    -2.5600 c3         1 ELQ       0.152100
@<TRIPOS>BOND
     1    16     8 2
     2     9    10 ar
     3     9     1 ar
     4     8     1 1
     5     8    15 1
     6    10     2 ar
     7     4     5 1
     8     4    14 1
     9     1     3 ar
    10     2    13 1
    11     2    11 ar
    12     5    15 1
    13     3    11 ar
    14    15     6 1
    15    11    12 1
    16     7    14 1
    17     7     6 1
    18    14    31 1
    19     3    17 1
    20    31    18 1
    21    31    19 1
    22    31    20 1
    23     4    21 1
    24     4    22 1
    25     5    23 1
    26     5    24 1
    27     6    25 1
    28     6    26 1
    29     7    27 1
    30     7    28 1
    31     9    29 1
    32    10    30 1
@<TRIPOS>SUBSTRUCTURE
     1 ELQ         1 TEMP              0 ****  ****    0 ROOT
