@<TRIPOS>MOLECULE
ELQ
   31    32     1     0     0
SMALL
bcc


@<TRIPOS>ATOM
      1 C10          0.0000     0.0000     0.0000 ca         1 ELQ      -0.135600
      2 C13          1.3880    -0.0110     2.3990 ca         1 ELQ       0.097900
      3 C15          1.3970     0.0000     0.0000 ca         1 ELQ      -0.053000
      4 C03         -2.9350     2.0710    -3.1400 c3         1 ELQ       0.138800
      5 C04         -2.6850     0.6520    -2.6230 c3         1 ELQ       0.036500
      6 C06         -2.3000     1.6400    -0.3330 c3         1 ELQ       0.036500
      7 C07         -2.5640     3.0220    -0.9400 c3         1 ELQ       0.138800
      8 C08         -0.7410    -0.0000    -1.2780 c          1 ELQ       0.609700
      9 C11         -0.6940    -0.0060     1.2120 ca         1 ELQ      -0.082000
     10 C12          0.0020    -0.0110     2.4030 ca         1 ELQ      -0.119000
     11 C14          2.0830     0.0000     1.1970 ca         1 ELQ       0.073900
     12 F16          3.4350    -0.0000     1.2000 f          1 ELQ      -0.113900
     13 F17          2.0650    -0.0100     3.5680 f          1 ELQ      -0.113900
     14 N02         -3.5050     2.8890    -2.0600 n3         1 ELQ      -0.545600
     15 N05         -1.8640     0.7340    -1.4060 n          1 ELQ      -0.146800
     16 O09         -0.3380    -0.6640    -2.2140 o          1 ELQ      -0.640100
     17 H1           1.9400     0.0090    -0.9370 ha         1 ELQ       0.140000
     18 H2          -4.3670     4.7750    -1.7540 h1         1 ELQ       0.002033
     19 H3          -3.0520     4.7380    -2.9370 h1         1 ELQ       0.002033
     20 H4          -4.6400     4.0810    -3.3580 h1         1 ELQ       0.002033
     21 H5          -1.9970     2.5060    -3.4650 h1         1 ELQ       0.017700
     22 H6          -3.6300     2.0350    -3.9700 h1         1 ELQ       0.017700
     23 H7          -2.1600     0.0780    -3.3770 h1         1 ELQ       0.039950
     24 H8          -3.6320     0.1780    -2.3910 h1         1 ELQ       0.039950
     25 H9          -1.5220     1.7160     0.4170 h1         1 ELQ       0.039950
     26 H10         -3.2100     1.2610     0.1160 h1         1 ELQ       0.039950
     27 H11         -1.6330     3.4420    -1.2990 h1         1 ELQ       0.017700
     28 H12         -2.9920     3.6710    -0.1850 h1         1 ELQ       0.017700
     29 H13         -1.7770    -0.0050     1.2170 ha         1 ELQ       0.125000
     30 H14         -0.5360    -0.0170     3.3430 ha         1 ELQ       0.126000
     31 C01         -3.9180     4.2070    -2.5600 c3         1 ELQ       0.189100
@<TRIPOS>BOND
     1     1     3 ar  
     2     1     8 1   
     3     1     9 ar  
     4     2    10 ar  
     5     2    11 ar  
     6     2    13 1   
     7     3    11 ar  
     8     3    17 1   
     9     4     5 1   
    10     4    14 1   
    11     4    21 1   
    12     4    22 1   
    13     5    15 1   
    14     5    23 1   
    15     5    24 1   
    16     6     7 1   
    17     6    15 1   
    18     6    25 1   
    19     6    26 1   
    20     7    14 1   
    21     7    27 1   
    22     7    28 1   
    23     8    15 1   
    24     8    16 2   
    25     9    10 ar  
    26     9    29 1   
    27    10    30 1   
    28    11    12 1   
    29    14    31 1   
    30    18    31 1   
    31    19    31 1   
    32    20    31 1   
@<TRIPOS>SUBSTRUCTURE
     1 ELQ         1 TEMP              0 ****  ****    0 ROOT
