@<TRIPOS>MOLECULE
molecule
   20    19     1     0     0
SMALL
bcc


@<TRIPOS>ATOM
      1 P01          0.0000     0.0000     0.0000 p5         1 ELT       1.257700
      2 O02          1.4800     0.0000     0.0000 o          1 ELT      -0.809500
      3 N03         -0.5600     0.0000     1.5870 n3         1 ELT      -0.770700
      4 C04         -0.1000     1.1950     2.3080 c3         1 ELT       0.170100
      5 C05         -2.0250    -0.1080     1.6280 c3         1 ELT       0.170100
      6 O06         -0.5370    -1.3150    -0.7590 os         1 ELT      -0.578200
      7 C07         -0.0040    -2.6210    -0.5250 c3         1 ELT       0.208400
      8 C08         -0.8190    -3.6520    -1.3070 c3         1 ELT      -0.099100
      9 O1          -0.5380     1.3140    -0.7590 o          1 ELT      -0.809500
     10 H1          -0.5390     2.0780     1.8600 h1         1 ELT       0.023533
     11 H2          -0.4010     1.1290     3.3460 h1         1 ELT       0.023533
     12 H3           0.9800     1.2590     2.2480 h1         1 ELT       0.023533
     13 H4          -2.3150    -1.1420     1.4860 h1         1 ELT       0.023533
     14 H5          -2.3860     0.2390     2.5890 h1         1 ELT       0.023533
     15 H6          -2.4540     0.4990     0.8400 h1         1 ELT       0.023533
     16 H7           1.0290    -2.6540    -0.8510 h1         1 ELT       0.019700
     17 H8          -0.0550    -2.8480     0.5340 h1         1 ELT       0.019700
     18 H9          -0.9440    -3.3140    -2.3280 hc         1 ELT       0.026700
     19 H10         -1.7910    -3.7700    -0.8440 hc         1 ELT       0.026700
     20 H11         -0.2980    -4.6020    -1.3030 hc         1 ELT       0.026700
@<TRIPOS>BOND
     1     2     1 1
     2     7     8 1
     3     7     6 1
     4     6     1 1
     5     1     3 1
     6     4     3 1
     7     3     5 1
     8     1     9 1
     9     4    10 1
    10     4    11 1
    11     4    12 1
    12     5    13 1
    13     5    14 1
    14     5    15 1
    15     7    16 1
    16     7    17 1
    17     8    18 1
    18     8    19 1
    19     8    20 1
@<TRIPOS>SUBSTRUCTURE
     1 ELT         1 TEMP              0 ****  ****    0 ROOT
