@<TRIPOS>MOLECULE
molecule
   53    55     1     0     0
SMALL
bcc


@<TRIPOS>ATOM
      1 CAA          0.0000     0.0000     0.0000 c3         1 ELV       0.101700
      2 CAC         -0.2980    -2.4830     4.9360 c3         1 ELV      -0.154100
      3 OAD          4.9100    -0.1330     7.6810 o          1 ELV      -0.823800
      4 OAE          5.1890    -0.0030     5.0890 o          1 ELV       0.449900
      5 OAF         -0.5600     1.4110     6.6090 oh         1 ELV      -0.592800
      6 OAG          2.9290     0.2340     8.5150 o          1 ELV      -0.823800
      7 CAJ          5.7440     0.1470     3.4620 ca         1 ELV      -0.495000
      8 CAK          4.7850     0.1890     4.4610 ca         1 ELV       0.820000
      9 CAL          5.3570     0.0900     2.1330 ca         1 ELV      -0.001000
     10 CAM          4.0720    -0.0010     2.4840 ca         1 ELV      -0.522000
     11 CAN          1.2860    -0.0010     2.3660 ca         1 ELV       0.368000
     12 CAO          1.7320     0.0110     5.9850 cc         1 ELV      -1.590000
     13 CAP         -0.8420     1.3190     5.2120 c3         1 ELV       0.113400
     14 CAQ          4.2480     0.0000     0.0050 c3         1 ELV      -0.313800
     15 OAR          1.4290     0.0000     0.0000 os         1 ELV      -0.199900
     16 CAS          3.6740     0.0410     7.5180 c          1 ELV       0.919800
     17 CAT          3.4390     0.1750     4.1310 ca         1 ELV      -0.141600
     18 CAU          3.0530     0.1190     2.8020 ca         1 ELV      -0.351100
     19 CAV          4.0120     0.0760     1.8030 ca         1 ELV       0.449700
     20 CAW          3.4370     0.0000     1.2750 ca         1 ELV      -0.101300
     21 CAX          2.0450    -0.0000     1.2090 ca         1 ELV      -0.881900
     22 CAY          3.1000     0.0150     6.1660 cd         1 ELV      -0.894400
     23 CAZ          3.9740    -0.0060     4.9810 c          1 ELV      -1.027100
     24 CBA          3.3210    -0.0010     3.6620 ca         1 ELV       0.363400
     25 CBB          1.9150     0.0050     3.6060 ca         1 ELV      -1.269400
     26 CBC         -0.8520    -1.1660     5.4810 c3         1 ELV      -0.096700
     27 CBD         -0.2880    -0.0000     4.6670 c3         1 ELV       0.190500
     28 NBE          1.1730     0.0050     4.7680 na         1 ELV      -0.720800
     29 HAA         -0.3610     0.5540     0.8580 h1         1 ELV       0.028033
     30 HAAA        -0.3610    -1.0200     0.0510 h1         1 ELV       0.028033
     31 HAAB        -0.3610     0.4660    -0.9090 h1         1 ELV       0.028033
     32 HAB         -2.4060    -1.3290     4.0080 hc         1 ELV       0.057533
     33 HABA        -1.2270    -0.0510     3.6840 hc         1 ELV       0.057533
     34 HABB        -2.4460     0.1700     4.9460 hc         1 ELV       0.057533
     35 HAC         -0.7290    -3.3110     5.4860 hc         1 ELV       0.057533
     36 HACA        -0.5530    -2.5760     3.8870 hc         1 ELV       0.057533
     37 HACB         0.7790    -2.4970     5.0480 hc         1 ELV       0.057533
     38 HOAF        -0.7850     2.2730     6.9190 ho         1 ELV       0.403000
     39 HAJ          6.7960     0.1580     3.7200 ha         1 ELV       0.157000
     40 HAK          5.0870     0.2110     5.5010 ha         1 ELV       0.147000
     41 HAL          6.1070     0.0890     1.3510 ha         1 ELV       0.158000
     42 HAM          5.1520     0.0660     2.5290 ha         1 ELV       0.073000
     43 HAN          0.4510     0.6830     2.4660 ha         1 ELV      -0.198000
     44 HAO          1.0720     0.0110     6.8450 h4         1 ELV       0.315000
     45 HAP         -0.3750     2.1480     4.6940 h1         1 ELV       0.031200
     46 HAPA        -1.9130     1.3530     5.0560 h1         1 ELV       0.031200
     47 HAQ          3.6220     0.7440    -0.4740 hc         1 ELV       0.048200
     48 HAQA         5.2870     0.1970    -0.2320 hc         1 ELV       0.048200
     49 HBC         -0.5630    -1.0540     6.5190 hc         1 ELV       0.148700
     50 HBD         -0.5770    -0.1110     3.6290 h1         1 ELV       0.134700
     51 ClAI         2.2040     0.1910     5.4200 cl         1 ELV       2.938600
     52 CAB         -1.8020    -0.5490     4.4550 c3         1 ELV      -0.154100
     53 FAH          1.7270     0.1400     2.4750 f          1 ELV       1.513100
@<TRIPOS>BOND
     1     1    15 1
     2     1    29 1
     3     1    30 1
     4     1    31 1
     5    52    26 1
     6    52    32 1
     7    52    33 1
     8    52    34 1
     9    26     2 1
    10     2    35 1
    11     2    36 1
    12     2    37 1
    13    16     3 1
    14    23     4 2
    15    13     5 1
    16     5    38 1
    17    16     6 1
    18    53    18 1
    19    17    51 1
    20     9     7 ar
    21     7     8 ar
    22     7    39 1
    23    17     8 ar
    24     8    40 1
    25    19     9 ar
    26     9    41 1
    27    20    10 ar
    28    10    24 ar
    29    10    42 1
    30    21    11 ar
    31    11    25 ar
    32    11    43 1
    33    28    12 1
    34    12    22 2
    35    12    44 1
    36    13    27 1
    37    13    45 1
    38    13    46 1
    39    14    20 1
    40    14    19 1
    41    14    47 1
    42    14    48 1
    43    15    21 1
    44    22    16 1
    45    18    17 ar
    46    19    18 ar
    47    21    20 ar
    48    23    22 1
    49    24    23 1
    50    25    24 ar
    51    25    28 1
    52    26    27 1
    53    26    49 1
    54    27    28 1
    55    27    50 1
@<TRIPOS>SUBSTRUCTURE
     1 ELV         1 TEMP              0 ****  ****    0 ROOT
