@<TRIPOS>MOLECULE
ELV
   53    74     1     0     0
SMALL
bcc


@<TRIPOS>ATOM
      1 CAA          0.0000     0.0000     0.0000 c3         1 ELV       0.030000
      2 CAC         -0.2980    -2.4830     4.9360 c3         1 ELV      -0.115000
      3 OAD          4.9100    -0.1330     7.6810 o          1 ELV      -0.617500
      4 OAE          5.1890    -0.0030     5.0890 oq         1 ELV       1.250000
      5 OAF         -0.5600     1.4110     6.6090 oh         1 ELV      -0.278000
      6 OAG          2.9290     0.2340     8.5150 o          1 ELV      -0.617500
      7 CAJ          5.7440     0.1470     3.4620 DU         1 ELV      -0.528000
      8 CAK          4.7850     0.1890     4.4610 DU         1 ELV      -0.067000
      9 CAL          5.3570     0.0900     2.1330 cy         1 ELV       0.467000
     10 CAM          4.0720    -0.0010     2.4840 DU         1 ELV      -0.472000
     11 CAN          1.2860    -0.0010     2.3660 cy         1 ELV       0.845000
     12 CAO          1.7320     0.0110     5.9850 c2         1 ELV      -2.703000
     13 CAP         -0.8420     1.3190     5.2120 c3         1 ELV       0.008000
     14 CAQ          4.2480     0.0000     0.0050 cy         1 ELV      -0.273000
     15 OAR          1.4290     0.0000     0.0000 os         1 ELV      -0.110000
     16 CAS          3.6740     0.0410     7.5180 c2         1 ELV       0.613000
     17 CAT          3.4390     0.1750     4.1310 DU         1 ELV      -0.428000
     18 CAU          3.0530     0.1190     2.8020 DU         1 ELV       0.551000
     19 CAV          4.0120     0.0760     1.8030 cv         1 ELV       0.105000
     20 CAW          3.4370     0.0000     1.2750 cx         1 ELV       0.183000
     21 CAX          2.0450    -0.0000     1.2090 cy         1 ELV      -1.106000
     22 CAY          3.1000     0.0150     6.1660 c3         1 ELV      -1.769000
     23 CAZ          3.9740    -0.0060     4.9810 DU         1 ELV      -0.900000
     24 CBA          3.3210    -0.0010     3.6620 DU         1 ELV       0.238000
     25 CBB          1.9150     0.0050     3.6060 DU         1 ELV      -2.014000
     26 CBC         -0.8520    -1.1660     5.4810 cx         1 ELV      -0.109000
     27 CBD         -0.2880    -0.0000     4.6670 DU         1 ELV       0.098000
     28 NBE          1.1730     0.0050     4.7680 n4         1 ELV      -0.676000
     29 HAA         -0.3610     0.5540     0.8580 h1         1 ELV       0.021667
     30 HAAA        -0.3610    -1.0200     0.0510 h1         1 ELV       0.021667
     31 HAAB        -0.3610     0.4660    -0.9090 h1         1 ELV       0.021667
     32 HAB         -2.4060    -1.3290     4.0080 ha         1 ELV       0.060000
     33 HABA        -1.2270    -0.0510     3.6840 DU         1 ELV       0.161000
     34 HABB        -2.4460     0.1700     4.9460 ha         1 ELV       0.060000
     35 HAC         -0.7290    -3.3110     5.4860 hc         1 ELV       0.050333
     36 HACA        -0.5530    -2.5760     3.8870 hc         1 ELV       0.050333
     37 HACB         0.7790    -2.4970     5.0480 hc         1 ELV       0.050333
     38 HOAF        -0.7850     2.2730     6.9190 ho         1 ELV       0.181000
     39 HAJ          6.7960     0.1580     3.7200 ha         1 ELV       0.148000
     40 HAK          5.0870     0.2110     5.5010 DU         1 ELV       0.086000
     41 HAL          6.1070     0.0890     1.3510 hc         1 ELV       0.159000
     42 HAM          5.1520     0.0660     2.5290 DU         1 ELV      -0.461000
     43 HAN          0.4510     0.6830     2.4660 hc         1 ELV       0.065000
     44 HAO          1.0720     0.0110     6.8450 hx         1 ELV       0.394000
     45 HAP         -0.3750     2.1480     4.6940 h1         1 ELV       0.040500
     46 HAPA        -1.9130     1.3530     5.0560 h1         1 ELV       0.040500
     47 HAQ          3.6220     0.7440    -0.4740 hc         1 ELV       0.067500
     48 HAQA         5.2870     0.1970    -0.2320 hc         1 ELV       0.067500
     49 HBC         -0.5630    -1.0540     6.5190 hc         1 ELV       0.184000
     50 HBD         -0.5770    -0.1110     3.6290 DU         1 ELV       0.124000
     51 ClAI         2.2040     0.1910     5.4200 cl         1 ELV       5.040000
     52 CAB         -1.8020    -0.5490     4.4550 DU         1 ELV      -0.299000
     53 FAH          1.7270     0.1400     2.4750 f          1 ELV       1.059000
@<TRIPOS>BOND
     1     1    15 1   
     2     1    29 1   
     3     1    30 1   
     4     1    31 1   
     5     2    26 1   
     6     2    35 1   
     7     2    36 1   
     8     2    37 1   
     9     3    16 1   
    10     4     7 1   
    11     4    23 1   
    12     5    13 1   
    13     5    38 1   
    14     6    16 1   
    15     7     8 1   
    16     7     9 1   
    17     7    39 1   
    18     7    42 1   
    19     8    17 1   
    20     8    23 1   
    21     8    24 1   
    22     8    40 1   
    23     9    10 1   
    24     9    19 1   
    25     9    41 1   
    26    10    17 1   
    27    10    18 1   
    28    10    20 1   
    29    10    24 1   
    30    10    42 1   
    31    11    18 1   
    32    11    21 1   
    33    11    25 1   
    34    11    43 1   
    35    12    22 1   
    36    12    28 1   
    37    12    44 1   
    38    13    27 1   
    39    13    45 1   
    40    13    46 1   
    41    14    19 1   
    42    14    20 1   
    43    14    47 1   
    44    14    48 1   
    45    15    21 1   
    46    16    22 1   
    47    17    18 1   
    48    17    23 1   
    49    17    25 1   
    50    17    51 1   
    51    18    19 1   
    52    18    20 1   
    53    18    24 1   
    54    20    21 1   
    55    21    53 1   
    56    22    23 1   
    57    22    51 1   
    58    23    24 1   
    59    23    40 1   
    60    24    25 1   
    61    25    28 1   
    62    25    51 1   
    63    25    53 1   
    64    26    27 1   
    65    26    49 1   
    66    26    52 1   
    67    27    28 1   
    68    27    50 1   
    69    27    52 1   
    70    28    51 1   
    71    32    52 1   
    72    33    50 1   
    73    33    52 1   
    74    34    52 1   
@<TRIPOS>SUBSTRUCTURE
     1 ELV         1 TEMP              0 ****  ****    0 ROOT
