@<TRIPOS>MOLECULE
ELW
   44    49     1     0     0
SMALL
bcc


@<TRIPOS>ATOM
      1 C4           0.0000     0.0000     0.0000 c2         1 ELW      -0.240000
      2 C14          2.3130     3.9120    -2.5920 c2         1 ELW      -0.063000
      3 C5           1.5150     0.0000     0.0000 c3         1 ELW       0.201000
      4 C11          3.8530     5.5620    -1.2840 c2         1 ELW      -0.067000
      5 C7           2.0330     1.2080    -0.6620 c1         1 ELW      -0.095000
      6 C8           2.4580     2.1600    -1.2030 c1         1 ELW      -0.178000
      7 C9           2.7240     3.6190    -1.5820 c2         1 ELW       0.141000
      8 C10          3.5370     4.3750    -0.7860 c2         1 ELW      -0.067000
      9 C13          3.0850     4.8370    -3.2970 cx         1 ELW       0.060000
     10 N2           0.6980     0.0090     2.1330 n          1 ELW       0.016000
     11 C3          -0.3760     0.0050     1.2620 c3         1 ELW      -0.173000
     12 C1           0.5740     0.0150     3.5930 c3         1 ELW      -0.085000
     13 O6           2.0180    -1.1750    -0.6400 oh         1 ELW      -0.238000
     14 N12          3.3100     5.8800    -2.5560 n2         1 ELW      -0.110000
     15 N15          3.1450     5.5350    -4.4580 na         1 ELW      -0.058000
     16 N16          3.9760     4.1530    -4.4190 na         1 ELW      -0.004000
     17 C17          5.1700     4.3740    -5.2200 c2         1 ELW      -0.119000
     18 C18          5.0960     3.8460    -6.4510 c2         1 ELW       0.115000
     19 N19          3.9830     3.1850    -6.9250 nz         1 ELW       0.785000
     20 O20          5.9080     3.8640    -7.4870 o          1 ELW      -0.276000
     21 C21          5.3060     5.7740    -5.8440 ca         1 ELW      -0.068000
     22 C22          4.2470     6.4820    -5.4840 ca         1 ELW       0.065000
     23 C23          4.0570     7.6820    -5.8360 ca         1 ELW      -0.093000
     24 C24          4.9190     8.4220    -6.6380 ca         1 ELW      -0.024000
     25 C25          6.0250     7.6200    -6.9900 ca         1 ELW       0.080000
     26 F26          6.9950     7.8480    -8.0620 f          1 ELW      -0.106000
     27 C27          6.2380     6.4010    -6.6450 ca         1 ELW      -0.111000
     28 C28          1.8740     0.0000     1.4730 c2         1 ELW       0.211000
     29 O29          2.9850     0.0000     1.9570 o          1 ELW      -0.314000
     30 H1          -0.5610     0.4160     0.8280 DU         1 ELW       0.222000
     31 H4           4.2260     4.0340    -0.0230 ha         1 ELW       0.149000
     32 H5          -1.1360     0.7290     1.5290 h1         1 ELW       0.170000
     33 H6           0.3050     1.0080     3.9320 h1         1 ELW       0.065667
     34 H7          -0.0490    -0.6750     4.1500 h1         1 ELW       0.065667
     35 H8           1.6240     0.1250     3.8340 h1         1 ELW       0.065667
     36 H9           2.4600    -0.8680    -1.4140 ho         1 ELW       0.198000
     37 H10          3.6710     3.2070    -7.8760 hn         1 ELW       0.033333
     38 H11          4.0510     2.2080    -6.7160 hn         1 ELW       0.033333
     39 H12          3.1610     8.2650    -6.0110 ha         1 ELW       0.156000
     40 H13          4.5010     9.0180    -7.4400 ha         1 ELW       0.155000
     41 H14          7.0730     6.7410    -6.0440 ha         1 ELW       0.192000
     42 H2           1.9250     3.1640    -3.2730 ha         1 ELW       0.128000
     43 H193         3.1420     3.5000    -6.4830 hn         1 ELW       0.033333
     44 H3           4.5970     6.2050    -0.8310 h4         1 ELW       0.150000
@<TRIPOS>BOND
     1     1     3 1   
     2     1    11 1   
     3     1    30 1   
     4     2     7 1   
     5     2     9 1   
     6     2    42 1   
     7     3     5 1   
     8     3    13 1   
     9     3    28 1   
    10     4     8 1   
    11     4    14 1   
    12     4    44 1   
    13     5     6 1   
    14     6     7 1   
    15     7     8 1   
    16     8    31 1   
    17     9    14 1   
    18     9    15 1   
    19     9    16 1   
    20    10    11 1   
    21    10    12 1   
    22    10    28 1   
    23    11    30 1   
    24    11    32 1   
    25    12    33 1   
    26    12    34 1   
    27    12    35 1   
    28    13    36 1   
    29    15    16 1   
    30    15    22 1   
    31    16    17 1   
    32    17    18 1   
    33    17    21 1   
    34    18    19 1   
    35    18    20 1   
    36    19    37 1   
    37    19    38 1   
    38    19    43 1   
    39    21    22 1   
    40    21    27 1   
    41    22    23 1   
    42    23    24 1   
    43    23    39 1   
    44    24    25 1   
    45    24    40 1   
    46    25    26 1   
    47    25    27 1   
    48    27    41 1   
    49    28    29 1   
@<TRIPOS>SUBSTRUCTURE
     1 ELW         1 TEMP              0 ****  ****    0 ROOT
