@<TRIPOS>MOLECULE
molecule
   44    47     1     0     0
SMALL
bcc


@<TRIPOS>ATOM
      1 C4           0.0000     0.0000     0.0000 c2         1 ELW      -0.260200
      2 C14          2.3130     3.9120    -2.5920 ca         1 ELW      -0.135300
      3 C5           1.5150     0.0000     0.0000 c3         1 ELW       0.154100
      4 C11          3.8530     5.5620    -1.2840 ca         1 ELW       0.391200
      5 C7           2.0330     1.2080    -0.6620 c1         1 ELW      -0.071100
      6 C8           2.4580     2.1600    -1.2030 cg         1 ELW      -0.149000
      7 C9           2.7240     3.6190    -1.5820 ca         1 ELW       0.115000
      8 C10          3.5370     4.3750    -0.7860 ca         1 ELW      -0.188300
      9 C13          3.0850     4.8370    -3.2970 ca         1 ELW       0.492800
     10 N2           0.6980     0.0090     2.1330 n          1 ELW      -0.439000
     11 C3          -0.3760     0.0050     1.2620 c2         1 ELW      -0.192400
     12 C1           0.5740     0.0150     3.5930 c3         1 ELW       0.084300
     13 O6           2.0180    -1.1750    -0.6400 oh         1 ELW      -0.517800
     14 N12          3.3100     5.8800    -2.5560 nb         1 ELW      -0.707000
     15 N15          3.1450     5.5350    -4.4580 na         1 ELW       0.021100
     16 N16          3.9760     4.1530    -4.4190 nd         1 ELW      -0.479100
     17 C17          5.1700     4.3740    -5.2200 cc         1 ELW       0.342900
     18 C18          5.0960     3.8460    -6.4510 c          1 ELW       0.449800
     19 N19          3.9830     3.1850    -6.9250 nz         1 ELW      -0.688400
     20 O20          5.9080     3.8640    -7.4870 o          1 ELW      -0.469100
     21 C21          5.3060     5.7740    -5.8440 ca         1 ELW      -0.157900
     22 C22          4.2470     6.4820    -5.4840 ca         1 ELW       0.058800
     23 C23          4.0570     7.6820    -5.8360 ca         1 ELW      -0.116000
     24 C24          4.9190     8.4220    -6.6380 ca         1 ELW      -0.072000
     25 C25          6.0250     7.6200    -6.9900 ca         1 ELW       0.117900
     26 F26          6.9950     7.8480    -8.0620 f          1 ELW      -0.120900
     27 C27          6.2380     6.4010    -6.6450 ca         1 ELW      -0.146000
     28 C28          1.8740     0.0000     1.4730 c          1 ELW       0.689500
     29 O29          2.9850     0.0000     1.9570 o          1 ELW      -0.557500
     30 H1          -0.5610     0.4160     0.8280 ha         1 ELW       0.342000
     31 H4           4.2260     4.0340    -0.0230 ha         1 ELW       0.180000
     32 H5          -1.1360     0.7290     1.5290 h4         1 ELW       0.234000
     33 H6           0.3050     1.0080     3.9320 h1         1 ELW       0.059367
     34 H7          -0.0490    -0.6750     4.1500 h1         1 ELW       0.059367
     35 H8           1.6240     0.1250     3.8340 h1         1 ELW       0.059367
     36 H9           2.4600    -0.8680    -1.4140 ho         1 ELW       0.415000
     37 H10          3.6710     3.2070    -7.8760 hn         1 ELW       0.459800
     38 H11          4.0510     2.2080    -6.7160 hn         1 ELW       0.459800
     39 H12          3.1610     8.2650    -6.0110 ha         1 ELW       0.190000
     40 H13          4.5010     9.0180    -7.4400 ha         1 ELW       0.198000
     41 H14          7.0730     6.7410    -6.0440 ha         1 ELW       0.228000
     42 H2           1.9250     3.1640    -3.2730 ha         1 ELW       0.149000
     43 H193         3.1420     3.5000    -6.4830 hn         1 ELW       0.459800
     44 H3           4.5970     6.2050    -0.8310 h4         1 ELW       0.057100
@<TRIPOS>BOND
     1    20    18 2
     2    26    25 1
     3    27    25 ar
     4    27    21 ar
     5    18    19 1
     6    18    17 1
     7    25    24 ar
     8    21    17 1
     9    21    22 ar
    10    17    16 2
    11    24    23 ar
    12    22    23 ar
    13    22    15 1
    14    16    15 1
    15    15     9 1
    16     9     2 ar
    17     9    14 ar
    18     2     7 ar
    19    14     4 ar
    20    12    10 1
    21    10    11 1
    22    10    28 1
    23     7     6 1
    24     7     8 ar
    25     4     8 ar
    26    29    28 2
    27    11     1 2
    28    28     3 1
    29     6     5 3
    30     5     3 1
    31     1     3 1
    32     3    13 1
    33     1    30 1
    34     2    42 1
    35     4    44 1
    36     8    31 1
    37    11    32 1
    38    12    33 1
    39    12    34 1
    40    12    35 1
    41    13    36 1
    42    19    37 1
    43    19    38 1
    44    23    39 1
    45    24    40 1
    46    27    41 1
    47    43    19 1
@<TRIPOS>SUBSTRUCTURE
     1 ELW         1 TEMP              0 ****  ****    0 ROOT
