@<TRIPOS>MOLECULE
molecule
   64    68     1     0     0
SMALL
bcc


@<TRIPOS>ATOM
      1 C4           0.0000     0.0000     0.0000 c3         1 ELZ      -0.264400
      2 C14          5.2080    -7.5910    -4.0860 c3         1 ELZ       0.174400
      3 C5           1.5470     0.0000     0.0000 c3         1 ELZ       0.212900
      4 C11          5.2460    -4.2780    -3.0990 ca         1 ELZ      -0.108000
      5 C7           2.0620     1.2090    -0.6640 c1         1 ELZ      -0.459100
      6 C8           2.4680     2.1640    -1.2120 cg         1 ELZ      -0.014000
      7 C9           3.1120    -3.3170    -2.1300 ca         1 ELZ       0.139000
      8 C10          4.6290    -3.2560    -2.6940 ca         1 ELZ      -0.102000
      9 C12          4.6650    -5.5820    -3.1100 ca         1 ELZ       0.056100
     10 N2           0.8570     0.3530     2.2120 n          1 ELZ      -0.514800
     11 C3          -0.3150     0.6340     1.3730 c3         1 ELZ       0.081000
     12 C1           0.8680     0.4460     3.6740 c3         1 ELZ       0.113300
     13 O6           2.0470    -1.1740    -0.6430 oh         1 ELZ      -0.542800
     14 O13          4.6060    -6.4230    -4.2110 os         1 ELZ      -0.303900
     15 C15          4.2810    -8.2830    -2.9130 c3         1 ELZ      -0.041700
     16 N16          4.1400    -7.5710    -1.5610 na         1 ELZ       0.023100
     17 C17          2.9150    -6.8570    -1.6510 cc         1 ELZ       0.250000
     18 N18          2.5320    -7.0480    -0.5810 nd         1 ELZ      -0.525000
     19 C19          3.0210    -7.4460     0.1970 cd         1 ELZ       0.392800
     20 C20          2.8880    -7.9140     1.9340 c          1 ELZ       0.304600
     21 N21          3.7910    -8.6990     2.3690 nz         1 ELZ      -0.613400
     22 O22          1.7800    -7.4370     2.2600 o          1 ELZ      -0.357100
     23 C23          4.1170    -8.0430    -0.6410 cc         1 ELZ      -0.308200
     24 C24          5.6060    -8.6710     0.0330 c          1 ELZ       0.600700
     25 O25          6.5450    -8.0400     0.7310 o          1 ELZ      -0.624100
     26 N26          5.5690   -10.0130     0.1110 ns         1 ELZ      -0.603900
     27 C27          6.5760   -11.1190     0.8780 c3         1 ELZ       0.167700
     28 C28          6.7710   -12.1720     0.4740 c3         1 ELZ      -0.144400
     29 C29          7.7930   -13.1210     1.1230 c3         1 ELZ       0.172900
     30 O30          9.0120   -12.2620     0.5770 os         1 ELZ      -0.453600
     31 C31          9.2700   -11.0790     1.2340 c3         1 ELZ       0.172900
     32 C32          8.1410   -10.2970     0.6350 c3         1 ELZ      -0.144400
     33 C33          3.0570    -5.6580    -2.6920 ca         1 ELZ      -0.001500
     34 C34          2.4720    -4.6060    -1.8580 ca         1 ELZ      -0.187000
     35 C35          1.9180     0.0000     1.4670 c          1 ELZ       0.673500
     36 O36          3.0130    -0.2780     1.9060 o          1 ELZ      -0.583500
     37 H1          -0.3750     0.3820     0.9420 hc         1 ELZ       0.192200
     38 H2          -0.3750     0.5880    -0.8290 hc         1 ELZ       0.192200
     39 H5           6.2630    -4.1610    -3.4550 ha         1 ELZ       0.167000
     40 H6           5.1340    -2.2980    -2.7250 ha         1 ELZ       0.181000
     41 H7          -1.0270     0.0230     1.9140 h1         1 ELZ       0.093200
     42 H8          -0.6940     1.6410     1.2430 h1         1 ELZ       0.093200
     43 H9           1.7470     0.9910     3.9950 h1         1 ELZ       0.054367
     44 H10         -0.0220     0.9660     4.0090 h1         1 ELZ       0.054367
     45 H11          0.8850    -0.5510     4.0990 h1         1 ELZ       0.054367
     46 H12          2.3480    -1.7860     0.0090 ho         1 ELZ       0.400000
     47 H13          3.2800    -8.3560    -3.3220 h1         1 ELZ       0.087200
     48 H14          4.7280    -9.2470    -2.7030 h1         1 ELZ       0.087200
     49 H15          4.6870    -8.2650     2.2680 hn         1 ELZ       0.489133
     50 H16          3.7720    -9.5520     1.8460 hn         1 ELZ       0.489133
     51 H17          4.8010   -10.4290    -0.3770 hn         1 ELZ       0.284500
     52 H18          6.3480   -11.1650     1.9360 h1         1 ELZ       0.035700
     53 H19          7.0690   -12.0570    -0.5610 hc         1 ELZ       0.067700
     54 H20          5.8190   -12.6890     0.4830 hc         1 ELZ       0.067700
     55 H21          7.7350   -13.1130     2.2040 h1         1 ELZ       0.075450
     56 H22          7.7640   -14.1150     0.6930 h1         1 ELZ       0.075450
     57 H23         10.2320   -10.6680     0.9550 h1         1 ELZ       0.075450
     58 H24          9.1580   -11.1840     2.3060 h1         1 ELZ       0.075450
     59 H25          8.1020    -9.3200     1.1010 hc         1 ELZ       0.067700
     60 H26          8.3170   -10.1820    -0.4280 hc         1 ELZ       0.067700
     61 H27          1.3950    -4.6660    -1.7610 ha         1 ELZ       0.187000
     62 H3           6.2310    -7.4680    -3.7510 h1         1 ELZ       0.078700
     63 H213         3.6240    -8.8960     3.3360 hn         1 ELZ       0.489133
     64 H4           5.1540    -8.1570    -5.0090 h1         1 ELZ       0.078700
@<TRIPOS>BOND
     1    30    31 1
     2    30    29 1
     3    31    32 1
     4    29    28 1
     5    32    27 1
     6    28    27 1
     7    27    26 1
     8    22    20 2
     9    26    24 1
    10    25    24 2
    11    24    23 1
    12    20    21 1
    13    20    19 1
    14    23    19 2
    15    23    16 1
    16    19    18 1
    17    16    15 1
    18    16    17 1
    19    18    17 2
    20    15     2 1
    21    17    33 1
    22     2    14 1
    23    33    34 ar
    24    33     9 ar
    25    14     9 1
    26    34     7 ar
    27     9     4 ar
    28    12    10 1
    29     7     6 1
    30     7     8 ar
    31     4     8 ar
    32    10    11 1
    33    10    35 1
    34     6     5 3
    35    11     1 1
    36    36    35 2
    37    35     3 1
    38     5     3 1
    39     1     3 1
    40     3    13 1
    41     1    37 1
    42     1    38 1
    43     2    62 1
    44     2    64 1
    45     4    39 1
    46     8    40 1
    47    11    41 1
    48    11    42 1
    49    12    43 1
    50    12    44 1
    51    12    45 1
    52    13    46 1
    53    15    47 1
    54    15    48 1
    55    21    49 1
    56    21    50 1
    57    26    51 1
    58    27    52 1
    59    28    53 1
    60    28    54 1
    61    29    55 1
    62    29    56 1
    63    31    57 1
    64    31    58 1
    65    32    59 1
    66    32    60 1
    67    34    61 1
    68    63    21 1
@<TRIPOS>SUBSTRUCTURE
     1 ELZ         1 TEMP              0 ****  ****    0 ROOT
