@<TRIPOS>MOLECULE
molecule
   23    23     1     0     0
SMALL
bcc


@<TRIPOS>ATOM
      1 N1           0.0000     0.0000     0.0000 nb         1 EM2      -0.638000
      2 C2           1.3260     0.0000     0.0000 ca         1 EM2       0.342300
      3 C2A          2.0360     0.0010    -1.2440 cg         1 EM2      -0.133000
      4 C3           2.0390     0.0000     1.2070 ca         1 EM2       0.130800
      5 O3           3.3950     0.0000     1.2100 oh         1 EM2      -0.511100
      6 C4           1.3210    -0.0010     2.4140 ca         1 EM2      -0.299600
      7 C4A          2.0180    -0.0010     3.7100 c          1 EM2       0.260500
      8 C5          -0.0810    -0.0020     2.3500 ca         1 EM2      -0.094600
      9 C6          -0.6990     0.0000     1.1160 ca         1 EM2       0.341200
     10 C5A         -0.9020    -0.0020     3.6140 c3         1 EM2      -0.133300
     11 O4P         -2.2910    -0.0020     3.2790 os         1 EM2      -0.442200
     12 P           -3.4590    -0.0030     4.3880 p5         1 EM2       1.014900
     13 O1P         -3.2670     1.1390     5.3090 o          1 EM2      -0.822167
     14 O2P         -4.8890     0.1290     3.6590 o          1 EM2      -0.822167
     15 O3P         -3.4070    -1.3810     5.2210 o          1 EM2      -0.822167
     16 C1           2.6300     0.0170    -2.2570 c1         1 EM2      -0.246500
     17 H1           3.7090     0.8620     0.9930 ho         1 EM2       0.408000
     18 H2           1.4490    -0.0020     4.6320 h4         1 EM2       0.408200
     19 H5          -1.7810     0.0400     1.0770 h4         1 EM2       0.050100
     20 H6          -1.9500     0.1050     3.3640 h1         1 EM2       0.238700
     21 H7          -0.5950     0.8240     4.2440 h1         1 EM2       0.238700
     22 H10          3.1660     0.0180    -3.1980 ha         1 EM2       0.142500
     23 O1           1.3820    -0.0020     4.7420 o          1 EM2      -0.612100
@<TRIPOS>BOND
     1    13    12 1
     2     9     1 ar
     3     9     8 ar
     4     1     2 ar
     5    12    15 1
     6    12    11 1
     7    12    14 1
     8    10    11 1
     9    10     8 1
    10     8     6 ar
    11     2     3 1
    12     2     4 ar
    13     3    16 3
    14     6     4 ar
    15     6     7 1
    16     4     5 1
    17     5    17 1
    18     7    18 1
    19     9    19 1
    20    10    20 1
    21    10    21 1
    22    16    22 1
    23     7    23 2
@<TRIPOS>SUBSTRUCTURE
     1 EM2         1 TEMP              0 ****  ****    0 ROOT
