@<TRIPOS>MOLECULE
molecule
   25    26     1     0     0
SMALL
bcc


@<TRIPOS>ATOM
      1 C01          0.0000     0.0000     0.0000 c3         1 EM6      -0.089100
      2 C02          1.5310     0.0000     0.0000 c3         1 EM6      -0.009200
      3 C03          2.0330     0.0000     1.4200 cc         1 EM6      -0.290400
      4 C04          2.3610    -1.1720     2.0390 cd         1 EM6       0.220400
      5 C05          2.2200    -2.4770     1.3000 c3         1 EM6      -0.044900
      6 N06          2.8050    -1.1640     3.2930 nd         1 EM6      -0.362600
      7 C07          2.9390    -0.0380     3.9670 cc         1 EM6       0.148700
      8 C08          3.3970     0.2530     5.3350 cc         1 EM6      -0.145000
      9 C09          3.8310    -0.7010     6.3120 cg         1 EM6       0.278800
     10 N10          4.1830    -1.4680     7.0710 n1         1 EM6      -0.350800
     11 C11          3.3260     1.6200     5.4930 cd         1 EM6       0.022700
     12 N12          2.8660     2.1710     4.3430 na         1 EM6      -0.216400
     13 N13          2.6260     1.1670     3.3990 n          1 EM6      -0.076500
     14 C14          2.1770     1.2080     2.1260 c          1 EM6       0.595500
     15 O15          1.8970     2.2720     1.6010 o          1 EM6      -0.645500
     16 H01         -0.3610    -0.5360     0.8690 hc         1 EM6       0.037367
     17 H01A        -0.3610     1.0210     0.0300 hc         1 EM6       0.037367
     18 H01B        -0.3610    -0.4840    -0.8990 hc         1 EM6       0.037367
     19 H02          1.8920    -0.8840    -0.5110 hc         1 EM6       0.055200
     20 H02A         1.8920     0.8850    -0.5110 hc         1 EM6       0.055200
     21 H05          2.5920    -2.3620     0.2890 hc         1 EM6       0.060700
     22 H05A         2.7910    -3.2440     1.8090 hc         1 EM6       0.060700
     23 H05B         1.1760    -2.7640     1.2700 hc         1 EM6       0.060700
     24 H11          3.0570     2.0410     6.4550 h4         1 EM6       0.204000
     25 HN12         2.7130     3.1430     4.1640 hn         1 EM6       0.355700
@<TRIPOS>BOND
     1     1     2 1
     2     2     3 1
     3     3     4 2
     4     3    14 1
     5     4     5 1
     6     4     6 1
     7     6     7 2
     8     7     8 1
     9     7    13 1
    10     8     9 1
    11     8    11 2
    12     9    10 3
    13    11    12 1
    14    12    13 1
    15    13    14 1
    16    14    15 2
    17     1    16 1
    18     1    17 1
    19     1    18 1
    20     2    19 1
    21     2    20 1
    22     5    21 1
    23     5    22 1
    24     5    23 1
    25    11    24 1
    26    12    25 1
@<TRIPOS>SUBSTRUCTURE
     1 EM6         1 TEMP              0 ****  ****    0 ROOT
