@<TRIPOS>MOLECULE
EM7
   34    36     1     0     0
SMALL
bcc


@<TRIPOS>ATOM
      1 C13          0.0000     0.0000     0.0000 c3         1 EM7       0.084300
      2 N7           1.4640     0.0000     0.0000 ns         1 EM7      -0.177900
      3 C12          2.1390     0.0000     1.1670 c          1 EM7       0.487600
      4 O1           1.5310    -0.0010     2.2200 o          1 EM7      -0.640100
      5 C5           3.6160    -0.0010     1.1670 ca         1 EM7       0.187500
      6 N6           4.2820    -0.1070     0.0220 nb         1 EM7      -0.532000
      7 C4           4.3200     0.1180     2.3770 ca         1 EM7       0.459900
      8 N8           3.6340     0.2340     3.5700 nv         1 EM7      -0.630500
      9 N5           5.6490     0.1180     2.3710 nb         1 EM7      -0.569000
     10 C3           6.3060     0.0070     1.2330 ca         1 EM7       0.328900
     11 C2           5.6080    -0.1070     0.0270 cp         1 EM7       0.295500
     12 C7           6.3530    -0.2250    -1.2510 cp         1 EM7      -0.146500
     13 C8           7.7400    -0.3290    -1.2430 ca         1 EM7      -0.043000
     14 C6           5.6630    -0.2380    -2.4630 ca         1 EM7      -0.052000
     15 C11          6.3530    -0.3480    -3.6540 ca         1 EM7      -0.099000
     16 C10          7.7300    -0.4480    -3.6530 ca         1 EM7      -0.090000
     17 C9           8.4320    -0.4410    -2.4460 ca         1 EM7      -0.139500
     18 C1           9.9080    -0.5520    -2.4450 cc         1 EM7       0.306000
     19 N2          10.6920    -0.5590    -1.3870 nd         1 EM7      -0.393000
     20 N3          11.9220    -0.6680    -1.7400 nd         1 EM7       0.038000
     21 N4          12.0170    -0.7380    -3.0230 nc         1 EM7      -0.395800
     22 N1          10.7080    -0.6710    -3.5330 na         1 EM7       0.289600
     23 H131        -0.3610    -0.8850     0.5110 h1         1 EM7       0.010033
     24 H132        -0.3610    -0.0000    -1.0210 h1         1 EM7       0.010033
     25 H133        -0.3610     0.8850     0.5110 h1         1 EM7       0.010033
     26 H7           1.9650     0.0060    -0.8670 hn         1 EM7       0.183500
     27 H81N         3.4070     1.1400     3.9310 hn         1 EM7       0.288300
     28 H82N         3.4060    -0.5850     4.0970 hn         1 EM7       0.288300
     29 H3           7.3890     0.0060     1.2320 h4         1 EM7       0.001100
     30 H8           8.2800    -0.3240    -0.3040 ha         1 EM7       0.138000
     31 H6           4.5820    -0.1610    -2.4700 ha         1 EM7       0.122000
     32 H11          5.8130    -0.3560    -4.5920 ha         1 EM7       0.110000
     33 H10          8.2670    -0.5340    -4.5900 ha         1 EM7       0.095000
     34 H1          10.4280    -0.6980    -4.4940 hn         1 EM7       0.173700
@<TRIPOS>BOND
     1     1     2 1   
     2     1    23 1   
     3     1    24 1   
     4     1    25 1   
     5     2     3 1   
     6     2    26 1   
     7     3     4 2   
     8     3     5 1   
     9     5     6 ar  
    10     5     7 ar  
    11     6    11 ar  
    12     7     8 1   
    13     7     9 ar  
    14     8    27 1   
    15     8    28 1   
    16     9    10 ar  
    17    10    11 ar  
    18    10    29 1   
    19    11    12 1   
    20    12    13 ar  
    21    12    14 ar  
    22    13    17 ar  
    23    13    30 1   
    24    14    15 ar  
    25    14    31 1   
    26    15    16 ar  
    27    15    32 1   
    28    16    17 ar  
    29    16    33 1   
    30    17    18 1   
    31    18    19 2   
    32    18    22 1   
    33    19    20 1   
    34    20    21 2   
    35    21    22 1   
    36    22    34 1   
@<TRIPOS>SUBSTRUCTURE
     1 EM7         1 TEMP              0 ****  ****    0 ROOT
