@<TRIPOS>MOLECULE
molecule
   34    36     1     0     0
SMALL
bcc


@<TRIPOS>ATOM
      1 C13          0.0000     0.0000     0.0000 c3         1 EM7       0.103300
      2 N7           1.4640     0.0000     0.0000 ns         1 EM7      -0.573900
      3 C12          2.1390     0.0000     1.1670 c          1 EM7       0.576600
      4 O1           1.5310    -0.0010     2.2200 o          1 EM7      -0.589100
      5 C5           3.6160    -0.0010     1.1670 ca         1 EM7       0.242500
      6 N6           4.2820    -0.1070     0.0220 nb         1 EM7      -0.649000
      7 C4           4.3200     0.1180     2.3770 ca         1 EM7       0.625900
      8 N8           3.6340     0.2340     3.5700 nv         1 EM7      -1.060500
      9 N5           5.6490     0.1180     2.3710 nb         1 EM7      -0.677000
     10 C3           6.3060     0.0070     1.2330 ca         1 EM7       0.345900
     11 C2           5.6080    -0.1070     0.0270 cp         1 EM7       0.332500
     12 C7           6.3530    -0.2250    -1.2510 cp         1 EM7      -0.142500
     13 C8           7.7400    -0.3290    -1.2430 ca         1 EM7      -0.065000
     14 C6           5.6630    -0.2380    -2.4630 ca         1 EM7      -0.072000
     15 C11          6.3530    -0.3480    -3.6540 ca         1 EM7      -0.132000
     16 C10          7.7300    -0.4480    -3.6530 ca         1 EM7      -0.105000
     17 C9           8.4320    -0.4410    -2.4460 ca         1 EM7      -0.141500
     18 C1           9.9080    -0.5520    -2.4450 cc         1 EM7       0.475000
     19 N2          10.6920    -0.5590    -1.3870 nd         1 EM7      -0.415000
     20 N3          11.9220    -0.6680    -1.7400 nd         1 EM7      -0.001000
     21 N4          12.0170    -0.7380    -3.0230 nc         1 EM7      -0.207800
     22 N1          10.7080    -0.6710    -3.5330 na         1 EM7      -0.189400
     23 H131        -0.3610    -0.8850     0.5110 h1         1 EM7       0.043033
     24 H132        -0.3610    -0.0000    -1.0210 h1         1 EM7       0.043033
     25 H133        -0.3610     0.8850     0.5110 h1         1 EM7       0.043033
     26 H7           1.9650     0.0060    -0.8670 hn         1 EM7       0.327500
     27 H81N         3.4070     1.1400     3.9310 hn         1 EM7       0.449300
     28 H82N         3.4060    -0.5850     4.0970 hn         1 EM7       0.449300
     29 H3           7.3890     0.0060     1.2320 h4         1 EM7       0.041100
     30 H8           8.2800    -0.3240    -0.3040 ha         1 EM7       0.162000
     31 H6           4.5820    -0.1610    -2.4700 ha         1 EM7       0.155000
     32 H11          5.8130    -0.3560    -4.5920 ha         1 EM7       0.142000
     33 H10          8.2670    -0.5340    -4.5900 ha         1 EM7       0.125000
     34 H1          10.4280    -0.6980    -4.4940 hn         1 EM7       0.338700
@<TRIPOS>BOND
     1     1     2 1
     2     2     3 1
     3     3     4 2
     4     3     5 1
     5     5     6 ar
     6     5     7 ar
     7     6    11 ar
     8     7     8 1
     9     7     9 ar
    10     9    10 ar
    11    10    11 ar
    12    11    12 1
    13    12    13 ar
    14    12    14 ar
    15    13    17 ar
    16    14    15 ar
    17    15    16 ar
    18    16    17 ar
    19    17    18 1
    20    18    19 2
    21    18    22 1
    22    19    20 1
    23    20    21 2
    24    21    22 1
    25     1    23 1
    26     1    24 1
    27     1    25 1
    28     2    26 1
    29     8    27 1
    30     8    28 1
    31    10    29 1
    32    13    30 1
    33    14    31 1
    34    15    32 1
    35    16    33 1
    36    22    34 1
@<TRIPOS>SUBSTRUCTURE
     1 EM7         1 TEMP              0 ****  ****    0 ROOT
