@<TRIPOS>MOLECULE
EM8
   46    48     1     0     0
SMALL
bcc


@<TRIPOS>ATOM
      1 C1           0.0000     0.0000     0.0000 c3         1 EM8      -0.007100
      2 C2           1.5300     0.0000     0.0000 c3         1 EM8       0.091600
      3 C3           2.0400     0.0000     1.4430 c3         1 EM8      -0.317400
      4 C7           2.0330     1.2300    -0.7100 ca         1 EM8      -0.046300
      5 C8           1.7030     2.4860    -0.2350 ca         1 EM8      -0.031000
      6 C9           2.1630     3.6160    -0.8840 ca         1 EM8      -0.099000
      7 C10          2.9530     3.4950    -2.0110 ca         1 EM8      -0.077000
      8 C11          3.2850     2.2360    -2.4910 ca         1 EM8      -0.256200
      9 C12          2.8270     1.1010    -1.8340 ca         1 EM8      -0.096000
     10 C14          5.5030     2.2720    -3.7150 ca         1 EM8      -0.145200
     11 C15          6.4110     2.8130    -2.8130 ca         1 EM8      -0.123000
     12 C16          7.7190     3.0310    -3.2030 ca         1 EM8       0.207100
     13 C19          5.9280     1.9520    -5.0210 ca         1 EM8      -0.134800
     14 C20          4.8040     1.4320    -5.7060 cc         1 EM8      -0.117200
     15 C21          3.7510     1.4410    -4.8470 cd         1 EM8      -0.403300
     16 C22          2.3910     0.9820    -5.1590 c          1 EM8       0.370300
     17 C4           1.6410    -1.2870     2.1180 c          1 EM8       1.020600
     18 O6           1.0140    -2.1200     1.5070 o          1 EM8      -0.892800
     19 N13          4.1660     1.9520    -3.6280 na         1 EM8       0.642500
     20 C17          8.1350     2.7140    -4.4960 ca         1 EM8      -0.211000
     21 C18          7.2610     2.1770    -5.3930 ca         1 EM8      -0.017000
     22 O23          1.4970     1.1330    -4.3480 o          1 EM8      -0.419100
     23 N24          2.1350     0.3930    -6.3440 nz         1 EM8       0.210600
     24 C26          9.9430     3.7610    -2.7860 c3         1 EM8       0.761700
     25 F27         10.7180     4.3090    -1.7570 f          1 EM8      -0.194300
     26 F28         10.4900     2.5350    -3.1800 f          1 EM8      -0.194300
     27 F29          9.9300     4.6370    -3.8760 f          1 EM8      -0.194300
     28 H1          -0.3610     0.3910     0.9430 hc         1 EM8       0.011700
     29 H2          -0.3610     0.6210    -0.8110 hc         1 EM8       0.011700
     30 H3          -0.3610    -1.0130    -0.1330 hc         1 EM8       0.011700
     31 H4           1.8910    -0.8850    -0.5100 hc         1 EM8       0.010700
     32 H5           2.9330     0.5340     1.7440 hc         1 EM8       0.057700
     33 H6           2.4260    -0.7170     0.7280 hc         1 EM8       0.057700
     34 H7           1.0840     2.5840     0.6490 ha         1 EM8       0.140000
     35 H8           1.9030     4.5990    -0.5090 ha         1 EM8       0.113000
     36 H9           3.3110     4.3820    -2.5210 ha         1 EM8       0.104000
     37 H10          3.0850     0.1170    -2.2070 ha         1 EM8       0.108000
     38 H11          6.2950     3.0740    -1.7680 ha         1 EM8       0.150000
     39 H12          4.7990     1.0430    -6.7170 ha         1 EM8       0.109000
     40 H14          9.0160     2.7600    -5.1250 ha         1 EM8       0.156000
     41 H15          7.5590     1.9220    -6.4030 ha         1 EM8       0.108000
     42 H16          1.1760     0.1060    -6.3740 hn         1 EM8       0.242133
     43 H17          2.3120     1.0430    -7.0850 hn         1 EM8       0.242133
     44 O5           1.9830    -1.5090     3.3960 o          1 EM8      -0.892800
     45 H243         2.7260    -0.4070    -6.4540 hn         1 EM8       0.242133
     46 O25          8.6070     3.5600    -2.3210 os         1 EM8      -0.310900
@<TRIPOS>BOND
     1     1     2 1   
     2     1    28 1   
     3     1    29 1   
     4     1    30 1   
     5     2     3 1   
     6     2     4 1   
     7     2    31 1   
     8     3    17 1   
     9     3    32 1   
    10     3    33 1   
    11     4     5 ar  
    12     4     9 ar  
    13     5     6 ar  
    14     5    34 1   
    15     6     7 ar  
    16     6    35 1   
    17     7     8 ar  
    18     7    36 1   
    19     8     9 ar  
    20     8    19 1   
    21     9    37 1   
    22    10    11 ar  
    23    10    13 ar  
    24    10    19 1   
    25    11    12 ar  
    26    11    38 1   
    27    12    20 ar  
    28    12    46 1   
    29    13    14 1   
    30    13    21 ar  
    31    14    15 2   
    32    14    39 1   
    33    15    16 1   
    34    15    19 1   
    35    16    22 2   
    36    16    23 1   
    37    17    18 1   
    38    17    44 1   
    39    20    21 ar  
    40    20    40 1   
    41    21    41 1   
    42    23    42 1   
    43    23    43 1   
    44    23    45 1   
    45    24    25 1   
    46    24    26 1   
    47    24    27 1   
    48    24    46 1   
@<TRIPOS>SUBSTRUCTURE
     1 EM8         1 TEMP              0 ****  ****    0 ROOT
