@<TRIPOS>MOLECULE
molecule
   46    48     1     0     0
SMALL
bcc


@<TRIPOS>ATOM
      1 C1           0.0000     0.0000     0.0000 c3         1 EM8      -0.073100
      2 C2           1.5300     0.0000     0.0000 c3         1 EM8       0.036600
      3 C3           2.0400     0.0000     1.4430 c3         1 EM8      -0.323400
      4 C7           2.0330     1.2300    -0.7100 ca         1 EM8      -0.038300
      5 C8           1.7030     2.4860    -0.2350 ca         1 EM8      -0.077000
      6 C9           2.1630     3.6160    -0.8840 ca         1 EM8      -0.122000
      7 C10          2.9530     3.4950    -2.0110 ca         1 EM8      -0.126000
      8 C11          3.2850     2.2360    -2.4910 ca         1 EM8      -0.061200
      9 C12          2.8270     1.1010    -1.8340 ca         1 EM8      -0.129000
     10 C14          5.5030     2.2720    -3.7150 ca         1 EM8       0.056800
     11 C15          6.4110     2.8130    -2.8130 ca         1 EM8      -0.153000
     12 C16          7.7190     3.0310    -3.2030 ca         1 EM8       0.197100
     13 C19          5.9280     1.9520    -5.0210 ca         1 EM8      -0.145800
     14 C20          4.8040     1.4320    -5.7060 cc         1 EM8      -0.133200
     15 C21          3.7510     1.4410    -4.8470 cd         1 EM8      -0.190300
     16 C22          2.3910     0.9820    -5.1590 c          1 EM8       0.509300
     17 C4           1.6410    -1.2870     2.1180 c          1 EM8       0.917600
     18 O6           1.0140    -2.1200     1.5070 o          1 EM8      -0.841300
     19 N13          4.1660     1.9520    -3.6280 na         1 EM8       0.074500
     20 C17          8.1350     2.7140    -4.4960 ca         1 EM8      -0.223000
     21 C18          7.2610     2.1770    -5.3930 ca         1 EM8      -0.055000
     22 O23          1.4970     1.1330    -4.3480 o          1 EM8      -0.395100
     23 N24          2.1350     0.3930    -6.3440 nz         1 EM8      -0.671400
     24 C26          9.9430     3.7610    -2.7860 c3         1 EM8       0.801700
     25 F27         10.7180     4.3090    -1.7570 f          1 EM8      -0.198967
     26 F28         10.4900     2.5350    -3.1800 f          1 EM8      -0.198967
     27 F29          9.9300     4.6370    -3.8760 f          1 EM8      -0.198967
     28 H1          -0.3610     0.3910     0.9430 hc         1 EM8       0.039367
     29 H2          -0.3610     0.6210    -0.8110 hc         1 EM8       0.039367
     30 H3          -0.3610    -1.0130    -0.1330 hc         1 EM8       0.039367
     31 H4           1.8910    -0.8850    -0.5100 hc         1 EM8       0.029700
     32 H5           2.9330     0.5340     1.7440 hc         1 EM8       0.074700
     33 H6           2.4260    -0.7170     0.7280 hc         1 EM8       0.074700
     34 H7           1.0840     2.5840     0.6490 ha         1 EM8       0.171000
     35 H8           1.9030     4.5990    -0.5090 ha         1 EM8       0.144000
     36 H9           3.3110     4.3820    -2.5210 ha         1 EM8       0.131000
     37 H10          3.0850     0.1170    -2.2070 ha         1 EM8       0.134000
     38 H11          6.2950     3.0740    -1.7680 ha         1 EM8       0.183000
     39 H12          4.7990     1.0430    -6.7170 ha         1 EM8       0.134000
     40 H14          9.0160     2.7600    -5.1250 ha         1 EM8       0.176000
     41 H15          7.5590     1.9220    -6.4030 ha         1 EM8       0.141000
     42 H16          1.1760     0.1060    -6.3740 hn         1 EM8       0.474467
     43 H17          2.3120     1.0430    -7.0850 hn         1 EM8       0.474467
     44 O5           1.9830    -1.5090     3.3960 o          1 EM8      -0.841300
     45 H243         2.7260    -0.4070    -6.4540 hn         1 EM8       0.474467
     46 O25          8.6070     3.5600    -2.3210 os         1 EM8      -0.333900
@<TRIPOS>BOND
     1    25    24 1
     2    26    24 1
     3    24    46 1
     4    24    27 1
     5    46    12 1
     6    12    20 ar
     7    12    11 ar
     8     1     2 1
     9    20    21 ar
    10    11    10 ar
    11     2     4 1
    12     2     3 1
    13    21    13 ar
    14    10    13 ar
    15    10    19 1
    16     5     4 ar
    17     5     6 ar
    18     4     9 ar
    19     6     7 ar
    20     9     8 ar
    21     7     8 ar
    22    13    14 1
    23     8    19 1
    24    19    15 1
    25     3    17 1
    26    14    15 2
    27    15    16 1
    28    17    44 1
    29    17    18 1
    30    16    23 1
    31    16    22 2
    32     1    28 1
    33     1    29 1
    34     1    30 1
    35     2    31 1
    36     3    32 1
    37     3    33 1
    38     5    34 1
    39     6    35 1
    40     7    36 1
    41     9    37 1
    42    11    38 1
    43    14    39 1
    44    20    40 1
    45    21    41 1
    46    23    42 1
    47    23    43 1
    48    45    23 1
@<TRIPOS>SUBSTRUCTURE
     1 EM8         1 TEMP              0 ****  ****    0 ROOT
