@<TRIPOS>MOLECULE
molecule
   36    37     1     0     0
SMALL
bcc


@<TRIPOS>ATOM
      1 PG           0.0000     0.0000     0.0000 p5         1 EMA       1.206900
      2 O1G          1.6090     0.0000     0.0000 o          1 EMA      -0.839167
      3 O2G         -0.4930     0.0000     1.3950 o          1 EMA      -0.839167
      4 O3G         -0.5360     1.3150    -0.7590 o          1 EMA      -0.839167
      5 PB          -2.1460    -1.2470    -0.7220 p5         1 EMA       1.257800
      6 O1B         -2.6050    -1.2290     0.6840 o          1 EMA      -0.690500
      7 O2B         -2.6470     0.0880    -1.4680 o          1 EMA      -0.690500
      8 O3B         -0.5380    -1.3140    -0.7590 os         1 EMA      -0.662800
      9 PA          -4.3550    -2.4080    -1.3930 p5         1 EMA       1.089600
     10 O1A         -4.7820    -2.3710     0.0230 o          1 EMA      -0.760000
     11 O2A         -4.8190    -1.0530    -2.1290 o          1 EMA      -0.760000
     12 O3A         -2.7530    -2.5380    -1.4680 os         1 EMA      -0.666800
     13 C5'         -5.1210    -3.8410    -2.2200 c3         1 EMA      -0.045800
     14 O5'         -6.5430    -3.7260    -2.1540 os         1 EMA      -0.407600
     15 C4'         -6.9550    -3.0070    -3.3180 c3         1 EMA       0.096400
     16 C1'         -8.4760    -2.8480    -3.3100 c3         1 EMA       0.049300
     17 N9          -8.8980    -2.1120    -4.5040 na         1 EMA      -0.241000
     18 C8          -9.2320    -2.6540    -5.7080 cc         1 EMA       0.305700
     19 N7          -9.5570    -1.7120    -6.5460 nd         1 EMA      -0.638100
     20 C5          -9.4580    -0.5100    -5.9300 ca         1 EMA      -0.216200
     21 C6          -9.6680     0.8220    -6.3260 ca         1 EMA       0.631200
     22 N6         -10.0860     1.1220    -7.6110 nv         1 EMA      -1.036500
     23 N1          -9.4600     1.7860    -5.4360 nb         1 EMA      -0.814000
     24 C2          -9.0600     1.5100    -4.2080 ca         1 EMA       0.629900
     25 N3          -8.8460     0.2780    -3.7960 nb         1 EMA      -0.753000
     26 C4          -9.0270    -0.7520    -4.6160 ca         1 EMA       0.492800
     27 H5'1        -4.8090    -4.7520    -1.7250 h1         1 EMA       0.016700
     28 H5'2        -4.8090    -3.8680    -3.2570 h1         1 EMA       0.016700
     29 H4'1        -6.6540    -3.5530    -4.2040 h1         1 EMA       0.060700
     30 H4'2        -6.4900    -2.0290    -3.3210 h1         1 EMA       0.060700
     31 H1'1        -8.7770    -2.3020    -2.4240 h1         1 EMA       0.050200
     32 H1'2        -8.9410    -3.8270    -3.3060 h1         1 EMA       0.050200
     33 H8          -9.2260    -3.7130    -5.9360 h5         1 EMA       0.036800
     34 HN61       -10.7060     1.8920    -7.7680 hn         1 EMA       0.404800
     35 HN62        -9.7480     0.5850    -8.3840 hn         1 EMA       0.404800
     36 H2          -8.9030     2.3270    -3.5150 h5         1 EMA       0.039100
@<TRIPOS>BOND
     1     1     2 1
     2     1     3 1
     3     1     4 1
     4     1     8 1
     5     5     6 1
     6     5     7 1
     7     5     8 1
     8     5    12 1
     9     9    10 1
    10     9    11 1
    11     9    12 1
    12     9    13 1
    13    13    14 1
    14    13    27 1
    15    13    28 1
    16    14    15 1
    17    15    16 1
    18    15    29 1
    19    15    30 1
    20    16    17 1
    21    16    31 1
    22    16    32 1
    23    17    18 1
    24    17    26 1
    25    18    19 2
    26    18    33 1
    27    19    20 1
    28    20    21 ar
    29    20    26 ar
    30    21    22 1
    31    21    23 ar
    32    22    34 1
    33    22    35 1
    34    23    24 ar
    35    24    25 ar
    36    24    36 1
    37    25    26 ar
@<TRIPOS>SUBSTRUCTURE
     1 EMA         1 TEMP              0 ****  ****    0 ROOT
