@<TRIPOS>MOLECULE
molecule
   16    15     1     0     0
SMALL
bcc


@<TRIPOS>ATOM
      1 C1           0.0000     0.0000     0.0000 c3         1 EMB      -0.098100
      2 C2           1.5300     0.0000     0.0000 c3         1 EMB       0.174400
      3 O1           2.0150     0.0000     1.3680 os         1 EMB      -0.457900
      4 C3           3.3380    -0.0000     1.6140 c          1 EMB       0.754100
      5 O2           4.1270    -0.0000     0.6900 o          1 EMB      -0.612000
      6 N1           3.7880     0.0000     2.8830 ns         1 EMB      -0.576900
      7 C4           5.2290    -0.0000     3.1500 c3         1 EMB       0.123300
      8 H13         -0.3610     0.8850     0.5110 hc         1 EMB       0.047367
      9 H12         -0.3610    -0.8840     0.5110 hc         1 EMB       0.047367
     10 H11         -0.3610    -0.0000    -1.0210 hc         1 EMB       0.047367
     11 H22          1.8910     0.8840    -0.5110 h1         1 EMB       0.047700
     12 H21          1.8910    -0.8840    -0.5110 h1         1 EMB       0.047700
     13 H1           3.1380    -0.0170     3.6440 hn         1 EMB       0.321500
     14 H43          5.6770     0.8840     2.7120 h1         1 EMB       0.044033
     15 H42          5.3980     0.0020     4.2200 h1         1 EMB       0.044033
     16 H41          5.6760    -0.8850     2.7150 h1         1 EMB       0.044033
@<TRIPOS>BOND
     1     1     2 1
     2     1     8 1
     3     1     9 1
     4     1    10 1
     5     2     3 1
     6     2    11 1
     7     2    12 1
     8     3     4 1
     9     4     5 2
    10     4     6 1
    11     6     7 1
    12     6    13 1
    13     7    14 1
    14     7    15 1
    15     7    16 1
@<TRIPOS>SUBSTRUCTURE
     1 EMB         1 TEMP              0 ****  ****    0 ROOT
