@<TRIPOS>MOLECULE
EMD
   53    56     1     0     0
SMALL
bcc


@<TRIPOS>ATOM
      1 S1           0.0000     0.0000     0.0000 ss         1 EMD      -0.302700
      2 C2           1.7640     0.0000     0.0000 c          1 EMD       0.633100
      3 O2           2.3730     0.0000    -1.0530 o          1 EMD      -0.612500
      4 N3           2.4320     0.0000     1.1640 ns         1 EMD       0.062100
      5 N4           1.7970    -0.0070     2.4000 n2         1 EMD      -0.543300
      6 C5           0.5970     0.3940     2.6130 ce         1 EMD       0.444900
      7 C6          -0.2940     0.9260     1.5260 c3         1 EMD      -0.026900
      8 C7           0.0200     2.4050     1.2930 c3         1 EMD      -0.003100
      9 C8           0.0660     0.3270     3.9870 ca         1 EMD      -0.174900
     10 C9           0.8630    -0.1660     5.0210 ca         1 EMD      -0.032000
     11 C10          0.3680    -0.2300     6.3100 ca         1 EMD      -0.138300
     12 C11         -0.9290     0.1960     6.5710 ca         1 EMD      -0.029400
     13 C12         -1.7230     0.6910     5.5430 ca         1 EMD      -0.140000
     14 C13         -1.2370     0.7560     4.2570 ca         1 EMD      -0.061000
     15 N14         -1.4460     0.1510     7.8700 n          1 EMD       0.001000
     16 C15         -0.7350    -0.6280     8.8930 c3         1 EMD       0.015000
     17 C16          0.7600    -0.3060     8.7700 c3         1 EMD      -0.041400
     18 C17          1.2530    -0.7710     7.4020 c3         1 EMD       0.039900
     19 C18         -2.5840     0.8060     8.1760 c          1 EMD       0.614700
     20 O18         -2.8950     1.8040     7.5570 o          1 EMD      -0.621100
     21 C19         -3.4500     0.3130     9.2640 ca         1 EMD      -0.167600
     22 C20         -4.5280     1.0840     9.7050 ca         1 EMD      -0.123000
     23 C21         -5.3380     0.6160    10.7210 ca         1 EMD       0.091100
     24 O21         -6.3890     1.3630    11.1520 os         1 EMD      -0.266900
     25 C22         -5.0730    -0.6180    11.3110 ca         1 EMD       0.129100
     26 O22         -5.8680    -1.0750    12.3130 os         1 EMD      -0.261900
     27 C23         -4.0020    -1.3840    10.8730 ca         1 EMD      -0.200000
     28 C24         -3.1920    -0.9250     9.8560 ca         1 EMD      -0.112000
     29 C25         -6.3920     2.5610    10.3710 c3         1 EMD       0.210700
     30 C26         -5.3520    -2.3490    12.7010 c3         1 EMD       0.212700
     31 H3           3.4330     0.0050     1.1410 hn         1 EMD       0.209500
     32 H6          -1.3300     0.8130     1.8210 h1         1 EMD       0.091700
     33 H71          0.1010     2.5940     0.2300 hc         1 EMD       0.024033
     34 H72          0.9560     2.6550     1.7770 hc         1 EMD       0.024033
     35 H73         -0.7750     3.0120     1.7090 hc         1 EMD       0.024033
     36 H9           1.8710    -0.5030     4.8120 ha         1 EMD       0.126000
     37 H12         -2.7330     1.0230     5.7550 ha         1 EMD       0.153000
     38 H13         -1.8910     1.0450     3.4440 ha         1 EMD       0.110000
     39 H151        -0.8970    -1.6860     8.7260 h1         1 EMD       0.039200
     40 H152        -1.0900    -0.3470     9.8780 h1         1 EMD       0.039200
     41 H161         1.3000    -0.8450     9.5390 hc         1 EMD       0.029700
     42 H162         0.8970     0.7660     8.8470 hc         1 EMD       0.029700
     43 H171         2.2650    -0.4160     7.2480 hc         1 EMD       0.024700
     44 H172         1.2390    -1.8540     7.3670 hc         1 EMD       0.024700
     45 H20         -4.6820     2.0790     9.3040 ha         1 EMD       0.157000
     46 H23         -3.8000    -2.3440    11.3330 ha         1 EMD       0.138000
     47 H24         -2.3570    -1.5250     9.5160 ha         1 EMD       0.134000
     48 H251        -7.2090     3.1970    10.6890 h1         1 EMD       0.006033
     49 H252        -5.4530     3.0840    10.5090 h1         1 EMD       0.006033
     50 H253        -6.5150     2.3100     9.3250 h1         1 EMD       0.006033
     51 H261        -5.9570    -2.7540    13.5030 h1         1 EMD       0.004033
     52 H262        -5.3780    -3.0230    11.8530 h1         1 EMD       0.004033
     53 H263        -4.3300    -2.2360    13.0420 h1         1 EMD       0.004033
@<TRIPOS>BOND
     1     1     2 1   
     2     1     7 1   
     3     2     3 2   
     4     2     4 1   
     5     4     5 1   
     6     4    31 1   
     7     5     6 2   
     8     6     7 1   
     9     6     9 1   
    10     7     8 1   
    11     7    32 1   
    12     8    33 1   
    13     8    34 1   
    14     8    35 1   
    15     9    10 ar  
    16     9    14 ar  
    17    10    11 ar  
    18    10    36 1   
    19    11    12 ar  
    20    11    18 1   
    21    12    13 ar  
    22    12    15 1   
    23    13    14 ar  
    24    13    37 1   
    25    14    38 1   
    26    15    16 1   
    27    15    19 1   
    28    16    17 1   
    29    16    39 1   
    30    16    40 1   
    31    17    18 1   
    32    17    41 1   
    33    17    42 1   
    34    18    43 1   
    35    18    44 1   
    36    19    20 2   
    37    19    21 1   
    38    21    22 ar  
    39    21    28 ar  
    40    22    23 ar  
    41    22    45 1   
    42    23    24 1   
    43    23    25 ar  
    44    24    29 1   
    45    25    26 1   
    46    25    27 ar  
    47    26    30 1   
    48    27    28 ar  
    49    27    46 1   
    50    28    47 1   
    51    29    48 1   
    52    29    49 1   
    53    29    50 1   
    54    30    51 1   
    55    30    52 1   
    56    30    53 1   
@<TRIPOS>SUBSTRUCTURE
     1 EMD         1 TEMP              0 ****  ****    0 ROOT
