@<TRIPOS>MOLECULE
EMF
   33    34     1     0     0
SMALL
bcc


@<TRIPOS>ATOM
      1 O9         -0.1500   -0.5180    0.2330 o         1 EMF     -0.551000
      2 C9          1.0510   -0.3560   -0.0060 c         1 EMF      0.662100
      3 O10         1.8850   -0.0590    1.0360 os        1 EMF     -0.436900
      4 C11         1.2740    0.0410    2.3360 c3        1 EMF      0.138400
      5 C12         2.3870    0.3740    3.3000 c3        1 EMF     -0.100100
      6 C8          1.7580   -0.4350   -1.3000 cx        1 EMF     -0.193700
      7 C14         1.3410   -1.4970   -2.2840 cx        1 EMF     -0.094400
      8 C7          0.9840   -0.0610   -2.5540 cx        1 EMF     -0.043400
      9 C1          1.6400    0.7060   -3.6210 ca        1 EMF     -0.064300
     10 C2          0.8980    1.6850   -4.2990 ca        1 EMF     -0.149000
     11 C3          1.4950    2.4250   -5.3190 ca        1 EMF      0.044100
     12 O3          0.8630    3.4090   -6.0620 os        1 EMF     -0.348900
     13 C13        -0.4720    3.7190   -5.6800 c3        1 EMF      0.120700
     14 C6          2.9750    0.4830   -3.9750 ca        1 EMF     -0.121000
     15 C5          3.5800    1.2170   -4.9920 ca        1 EMF     -0.135000
     16 C4          2.8450    2.1940   -5.6720 ca        1 EMF      0.115100
     17 O4          3.4870    2.8890   -6.6680 oh        1 EMF     -0.494100
     18 H111        0.4910    0.8430    2.3050 h1        1 EMF      0.051700
     19 H112        0.7860   -0.9390    2.5800 h1        1 EMF      0.051700
     20 H121        3.1650   -0.4260    3.2930 hc        1 EMF      0.048033
     21 H122        2.8730    1.3390    3.0190 hc        1 EMF      0.048033
     22 H123        1.9620    0.4640    4.3280 hc        1 EMF      0.048033
     23 H8          2.8290   -0.1580   -1.2270 hc        1 EMF      0.116700
     24 H141        0.5280   -2.1920   -2.0020 hc        1 EMF      0.087700
     25 H142        2.1260   -1.9870   -2.8880 hc        1 EMF      0.087700
     26 H7         -0.0820    0.2210   -2.4040 hc        1 EMF      0.101700
     27 H2         -0.1510    1.8630   -4.0210 ha        1 EMF      0.142000
     28 H131       -0.5090    4.0660   -4.6190 h1        1 EMF      0.047033
     29 H132       -1.1370    2.8330   -5.8280 h1        1 EMF      0.047033
     30 H133       -0.7560    4.5470   -6.3790 h1        1 EMF      0.047033
     31 H6          3.5630   -0.2830   -3.4450 ha        1 EMF      0.135000
     32 H5          4.6300    1.0430   -5.2710 ha        1 EMF      0.154000
     33 HO4         2.8630    3.5320   -7.0380 ho        1 EMF      0.437000
@<TRIPOS>BOND
     1    1    2 2   
     2    2    3 1   
     3    2    6 1   
     4    3    4 1   
     5    4    5 1   
     6    4   18 1   
     7    4   19 1   
     8    5   20 1   
     9    5   21 1   
    10    5   22 1   
    11    6    7 1   
    12    6    8 1   
    13    6   23 1   
    14    7    8 1   
    15    7   24 1   
    16    7   25 1   
    17    8    9 1   
    18    8   26 1   
    19    9   10 ar  
    20    9   14 ar  
    21   10   11 ar  
    22   10   27 1   
    23   11   12 1   
    24   11   16 ar  
    25   12   13 1   
    26   13   28 1   
    27   13   29 1   
    28   13   30 1   
    29   14   15 ar  
    30   14   31 1   
    31   15   16 ar  
    32   15   32 1   
    33   16   17 1   
    34   17   33 1   
@<TRIPOS>SUBSTRUCTURE
     1 EMF         1 TEMP              0 ****  ****    0 ROOT
