@<TRIPOS>MOLECULE
molecule
   33    34     1     0     0
SMALL
bcc


@<TRIPOS>ATOM
      1 O9           0.0000     0.0000     0.0000 o          1 EMF      -0.555000
      2 C9           1.2090     0.0000     0.0000 c          1 EMF       0.668100
      3 O10          1.8800     0.0000     1.1620 os         1 EMF      -0.423900
      4 C11          1.0900     0.0070     2.3800 c3         1 EMF       0.146400
      5 C12          2.0220     0.0070     3.5930 c3         1 EMF      -0.096100
      6 C8           1.9620    -0.0060    -1.3050 cx         1 EMF      -0.189700
      7 C14          1.8860    -1.2750    -2.1580 cx         1 EMF      -0.106400
      8 C7           1.1390    -0.0130    -2.5950 cx         1 EMF      -0.055400
      9 C1           1.6890     0.7470    -3.7750 ca         1 EMF      -0.027300
     10 C2           0.9650     1.7910    -4.3210 ca         1 EMF      -0.196000
     11 C3           1.4690     2.4910    -5.4050 ca         1 EMF       0.127100
     12 O3           0.7580     3.5180    -5.9440 os         1 EMF      -0.312900
     13 C13         -0.5010     3.8210    -5.3410 c3         1 EMF       0.124700
     14 C6           2.9190     0.4030    -4.3050 ca         1 EMF      -0.155000
     15 C5           3.4280     1.0980    -5.3860 ca         1 EMF      -0.127000
     16 C4           2.7050     2.1420    -5.9420 ca         1 EMF       0.078100
     17 O4           3.2050     2.8250    -7.0050 oh         1 EMF      -0.503100
     18 H111         0.4690     0.8950     2.4020 h1         1 EMF       0.049200
     19 H112         0.4610    -0.8740     2.4070 h1         1 EMF       0.049200
     20 H121         1.4320     0.0080     4.5020 hc         1 EMF       0.048033
     21 H122         2.6460    -0.8780     3.5690 hc         1 EMF       0.048033
     22 H123         2.6480     0.8910     3.5680 hc         1 EMF       0.048033
     23 H8           2.9020     0.5280    -1.3700 hc         1 EMF       0.108700
     24 H141         1.2670    -2.0690    -1.7600 hc         1 EMF       0.086700
     25 H142         2.7780    -1.5100    -2.7260 hc         1 EMF       0.086700
     26 H7           0.0660    -0.0470    -2.4490 hc         1 EMF       0.112700
     27 H2          -0.0110     2.0390    -3.9230 ha         1 EMF       0.146000
     28 H131        -0.3510     4.0760    -4.2990 h1         1 EMF       0.042700
     29 H132        -1.1520     2.9580    -5.4110 h1         1 EMF       0.042700
     30 H133        -0.9550     4.6590    -5.8560 h1         1 EMF       0.042700
     31 H6           3.4850    -0.4120    -3.8710 ha         1 EMF       0.135000
     32 H5           4.3910     0.8260    -5.8010 ha         1 EMF       0.143000
     33 HO4          3.1330     2.2950    -7.7820 ho         1 EMF       0.416000
@<TRIPOS>BOND
     1    13    12 1
     2    12    11 1
     3     5     4 1
     4    11    10 ar
     5    11    16 ar
     6    10     9 ar
     7     4     3 1
     8     3     2 1
     9    17    16 1
    10    16    15 ar
    11     9     8 1
    12     9    14 ar
    13     8     6 1
    14     8     7 1
    15     2     6 1
    16     2     1 2
    17     6     7 1
    18    15    14 ar
    19     4    18 1
    20     4    19 1
    21     5    20 1
    22     5    21 1
    23     5    22 1
    24     6    23 1
    25     7    24 1
    26     7    25 1
    27     8    26 1
    28    10    27 1
    29    13    28 1
    30    13    29 1
    31    13    30 1
    32    14    31 1
    33    15    32 1
    34    17    33 1
@<TRIPOS>SUBSTRUCTURE
     1 EMF         1 TEMP              0 ****  ****    0 ROOT
