@<TRIPOS>MOLECULE
EMH
   70    75     1     0     0
SMALL
bcc


@<TRIPOS>ATOM
      1 C4           0.0000     0.0000     0.0000 ca         1 EMH      -0.037000
      2 C5           2.1090     0.0000     1.1870 ca         1 EMH       0.034000
      3 C6           1.3700     0.0000     0.0000 ca         1 EMH      -0.101000
      4 C7          -2.0320     0.0010     1.6370 cc         1 EMH      -0.241400
      5 C8          -2.0680    -0.0080     3.0140 cd         1 EMH      -0.207300
      6 C10         -6.8510     1.0030     2.8890 ca         1 EMH       0.037600
      7 C13         -5.6590     0.6730     0.8400 ca         1 EMH      -0.038000
      8 C15         -4.5120     0.3460     1.5700 ca         1 EMH      -0.157600
      9 C17         -3.3440    -0.0180     3.8090 c3         1 EMH       0.074500
     10 C21         -3.2260     0.9910     4.9540 c3         1 EMH       0.001900
     11 C22         -3.5530    -1.4150     4.3970 c3         1 EMH       0.001900
     12 C24         -8.1520     2.8710     0.5610 c3         1 EMH       0.008900
     13 C26         -9.7430     1.7760     5.8360 c3         1 EMH       0.130500
     14 C28         -9.8950     0.5510     4.9300 c3         1 EMH      -0.055900
     15 N19          4.6740     0.0220     1.0690 n1         1 EMH      -0.389800
     16 C18          3.5390     0.0020     1.1170 cg         1 EMH       0.233800
     17 C3           1.4880    -0.0020     2.4420 ca         1 EMH      -0.063000
     18 C1           0.0990    -0.0030     2.4560 ca         1 EMH      -0.264200
     19 C2          -0.6390    -0.0010     1.2430 ca         1 EMH      -0.024800
     20 N9          -0.8000    -0.0060     3.4910 na         1 EMH       0.415600
     21 C14         -4.5370     0.3390     2.9640 ca         1 EMH      -0.035300
     22 C16         -3.2640     0.0210     0.8340 c          1 EMH       0.687900
     23 O20         -3.2600    -0.2140    -0.3600 o          1 EMH      -0.568100
     24 C12         -5.7130     0.6730     3.6140 ca         1 EMH      -0.159000
     25 C11         -6.8230     1.0000     1.4970 ca         1 EMH      -0.073300
     26 C23         -8.0610     1.3520     0.7130 c3         1 EMH       0.029900
     27 N25         -8.0240     1.3360     3.5570 nh         1 EMH      -0.399000
     28 C29         -7.8250     2.5100     4.4160 c3         1 EMH       0.153800
     29 C27         -9.1660     2.9360     5.0200 c3         1 EMH      -0.055900
     30 C30         -8.5330     0.1950     4.3280 c3         1 EMH       0.153800
     31 N31        -11.0570     2.1580     6.3700 n3         1 EMH      -0.530600
     32 C32        -10.9330     3.2570     7.3380 c3         1 EMH       0.097300
     33 C34        -12.3140     3.5820     7.9130 c3         1 EMH       0.215400
     34 O36        -13.2070     3.9010     6.8430 os         1 EMH      -0.411600
     35 C35        -13.3530     2.8520     5.8820 c3         1 EMH       0.215400
     36 C33        -11.9810     2.5190     5.2860 c3         1 EMH       0.097300
     37 H4          -0.5640    -0.0000    -0.9250 ha         1 EMH       0.132000
     38 H6           1.8960     0.0020    -0.9470 ha         1 EMH       0.113000
     39 H13         -5.6320     0.6690    -0.2430 ha         1 EMH       0.130000
     40 H21         -2.2860     0.8410     5.4710 hc         1 EMH       0.012200
     41 H21A        -4.0460     0.8470     5.6470 hc         1 EMH       0.012200
     42 H21B        -3.2630     1.9970     4.5540 hc         1 EMH       0.012200
     43 H22         -3.8140    -2.1050     3.6040 hc         1 EMH       0.012200
     44 H22A        -2.6400    -1.7450     4.8770 hc         1 EMH       0.012200
     45 H22B        -4.3530    -1.3830     5.1270 hc         1 EMH       0.012200
     46 H24         -8.0450     3.1370    -0.4840 hc         1 EMH       0.003033
     47 H24A        -7.3620     3.3400     1.1350 hc         1 EMH       0.003033
     48 H24B        -9.1140     3.2140     0.9240 hc         1 EMH       0.003033
     49 H26         -9.0710     1.5390     6.6510 h1         1 EMH       0.034700
     50 H28        -10.2610    -0.2860     5.5130 hc         1 EMH       0.033200
     51 H28A       -10.5930     0.7760     4.1320 hc         1 EMH       0.033200
     52 H3           2.0650    -0.0020     3.3590 ha         1 EMH       0.115000
     53 H12         -5.7450     0.6780     4.6960 ha         1 EMH       0.122000
     54 H23         -8.0110     0.8940    -0.2670 hc         1 EMH       0.024200
     55 H23A        -8.9370     0.9880     1.2370 hc         1 EMH       0.024200
     56 H29         -7.4220     3.3240     3.8250 h1         1 EMH       0.013200
     57 H29A        -7.1350     2.2590     5.2130 h1         1 EMH       0.013200
     58 H27         -9.0140     3.7910     5.6680 hc         1 EMH       0.033200
     59 H27A        -9.8530     3.1950     4.2250 hc         1 EMH       0.033200
     60 H30         -7.8380    -0.0390     5.1250 h1         1 EMH       0.013200
     61 H30A        -8.6420    -0.6620     3.6740 h1         1 EMH       0.013200
     62 H32        -10.2700     2.9580     8.1410 h1         1 EMH       0.023450
     63 H32A       -10.5350     4.1330     6.8400 h1         1 EMH       0.023450
     64 H34        -12.2360     4.4310     8.5820 h1         1 EMH       0.012450
     65 H34A       -12.6910     2.7220     8.4530 h1         1 EMH       0.012450
     66 H35        -13.7580     1.9720     6.3670 h1         1 EMH       0.012450
     67 H35A       -14.0190     3.1760     5.0920 h1         1 EMH       0.012450
     68 H33        -12.0780     1.6850     4.6020 h1         1 EMH       0.023450
     69 H33A       -11.5980     3.3840     4.7590 h1         1 EMH       0.023450
     70 H9          -0.5540    -0.0060     4.4610 hn         1 EMH       0.116700
@<TRIPOS>BOND
     1     1     3 ar  
     2     1    19 ar  
     3     1    37 1   
     4     2     3 ar  
     5     2    16 1   
     6     2    17 ar  
     7     3    38 1   
     8     4     5 2   
     9     4    19 1   
    10     4    22 1   
    11     5     9 1   
    12     5    20 1   
    13     6    24 ar  
    14     6    25 ar  
    15     6    27 1   
    16     7     8 ar  
    17     7    25 ar  
    18     7    39 1   
    19     8    21 ar  
    20     8    22 1   
    21     9    10 1   
    22     9    11 1   
    23     9    21 1   
    24    10    40 1   
    25    10    41 1   
    26    10    42 1   
    27    11    43 1   
    28    11    44 1   
    29    11    45 1   
    30    12    26 1   
    31    12    46 1   
    32    12    47 1   
    33    12    48 1   
    34    13    14 1   
    35    13    29 1   
    36    13    31 1   
    37    13    49 1   
    38    14    30 1   
    39    14    50 1   
    40    14    51 1   
    41    15    16 3   
    42    17    18 ar  
    43    17    52 1   
    44    18    19 ar  
    45    18    20 1   
    46    20    70 1   
    47    21    24 ar  
    48    22    23 2   
    49    24    53 1   
    50    25    26 1   
    51    26    54 1   
    52    26    55 1   
    53    27    28 1   
    54    27    30 1   
    55    28    29 1   
    56    28    56 1   
    57    28    57 1   
    58    29    58 1   
    59    29    59 1   
    60    30    60 1   
    61    30    61 1   
    62    31    32 1   
    63    31    36 1   
    64    32    33 1   
    65    32    62 1   
    66    32    63 1   
    67    33    34 1   
    68    33    64 1   
    69    33    65 1   
    70    34    35 1   
    71    35    36 1   
    72    35    66 1   
    73    35    67 1   
    74    36    68 1   
    75    36    69 1   
@<TRIPOS>SUBSTRUCTURE
     1 EMH         1 TEMP              0 ****  ****    0 ROOT
