@<TRIPOS>MOLECULE
molecule
   47    47     1     0     0
SMALL
bcc


@<TRIPOS>ATOM
      1 C2           0.0000     0.0000     0.0000 c          1 EMJ       0.543500
      2 C3           1.4660     0.0000     0.0000 cc         1 EMJ      -0.177400
      3 C4           2.1410     0.0000     1.1690 cd         1 EMJ       0.038900
      4 C5           1.3990     0.0000     2.4550 c          1 EMJ       0.535500
      5 C6          -0.0670     0.0010     2.4560 cc         1 EMJ      -0.238200
      6 C7          -0.7420     0.0060     1.2870 cd         1 EMJ       0.060900
      7 O8           2.0060    -0.0050     3.5080 o          1 EMJ      -0.491100
      8 O9          -0.6070    -0.0000    -1.0520 o          1 EMJ      -0.473100
      9 O10          3.4940    -0.0020     1.1680 oh         1 EMJ      -0.481100
     10 O11         -2.0950     0.0080     1.2870 oh         1 EMJ      -0.497100
     11 C12          2.2190    -0.0010    -1.3060 c3         1 EMJ      -0.026200
     12 C13          2.3650    -1.4380    -1.8100 c3         1 EMJ      -0.075400
     13 C14          3.1290    -1.4400    -3.1350 c3         1 EMJ      -0.080400
     14 C15          3.2750    -2.8760    -3.6390 c3         1 EMJ      -0.081400
     15 C16          4.0400    -2.8770    -4.9640 c3         1 EMJ      -0.081400
     16 C17          4.1850    -4.3150    -5.4680 c3         1 EMJ      -0.082400
     17 C18          4.9500    -4.3150    -6.7930 c3         1 EMJ      -0.082400
     18 C19          5.0950    -5.7520    -7.2970 c3         1 EMJ      -0.082400
     19 C20          5.8600    -5.7530    -8.6220 c3         1 EMJ      -0.081400
     20 C21          6.0060    -7.1900    -9.1260 c3         1 EMJ      -0.084400
     21 C22          6.7700    -7.1920   -10.4520 c3         1 EMJ      -0.092100
     22 H1          -0.6090     0.0030     3.3940 ha         1 EMJ       0.173000
     23 H2           3.8090     0.7260     1.6790 ho         1 EMJ       0.436000
     24 H3          -2.4110    -0.8800     1.3310 ho         1 EMJ       0.437000
     25 H4           1.6750     0.5840    -2.0370 hc         1 EMJ       0.064200
     26 H5           2.9090    -2.0240    -1.0790 hc         1 EMJ       0.048200
     27 H6           2.5850    -0.8540    -3.8660 hc         1 EMJ       0.042700
     28 H7           4.1110    -1.0080    -2.9860 hc         1 EMJ       0.042700
     29 H8           3.8190    -3.4620    -2.9080 hc         1 EMJ       0.042200
     30 H9           2.2930    -3.3080    -3.7890 hc         1 EMJ       0.042200
     31 H10          5.0220    -2.4460    -4.8140 hc         1 EMJ       0.041200
     32 H11          3.4960    -2.2910    -5.6950 hc         1 EMJ       0.041200
     33 H12          3.2020    -4.7460    -5.6180 hc         1 EMJ       0.041200
     34 H13          4.7290    -4.9010    -4.7370 hc         1 EMJ       0.041200
     35 H14          4.4060    -3.7290    -7.5240 hc         1 EMJ       0.041200
     36 H15          5.9320    -3.8840    -6.6430 hc         1 EMJ       0.041200
     37 H16          5.6390    -6.3380    -6.5660 hc         1 EMJ       0.040700
     38 H17          4.1120    -6.1830    -7.4470 hc         1 EMJ       0.040700
     39 H18          6.8420    -5.3210    -8.4720 hc         1 EMJ       0.040700
     40 H19          5.3160    -5.1670    -9.3530 hc         1 EMJ       0.040700
     41 H20          6.5500    -7.7750    -8.3950 hc         1 EMJ       0.039700
     42 H21          5.0240    -7.6220    -9.2750 hc         1 EMJ       0.039700
     43 H22          6.2240    -6.6100   -11.1840 hc         1 EMJ       0.032367
     44 H23          6.8770    -8.2100   -10.8060 hc         1 EMJ       0.032367
     45 H24          7.7510    -6.7560   -10.3040 hc         1 EMJ       0.032367
     46 H25          3.2010     0.4310    -1.1570 hc         1 EMJ       0.064200
     47 H26          1.3830    -1.8700    -1.9590 hc         1 EMJ       0.048200
@<TRIPOS>BOND
     1     7     4 2
     2     4     5 1
     3     4     3 1
     4     9     3 1
     5     5     6 2
     6     3     2 2
     7     6    10 1
     8     6     1 1
     9     2     1 1
    10     2    11 1
    11     1     8 2
    12    11    12 1
    13    12    13 1
    14    13    14 1
    15    14    15 1
    16    15    16 1
    17    16    17 1
    18    17    18 1
    19    18    19 1
    20    19    20 1
    21    20    21 1
    22     5    22 1
    23     9    23 1
    24    10    24 1
    25    11    25 1
    26    12    26 1
    27    13    27 1
    28    13    28 1
    29    14    29 1
    30    14    30 1
    31    15    31 1
    32    15    32 1
    33    16    33 1
    34    16    34 1
    35    17    35 1
    36    17    36 1
    37    18    37 1
    38    18    38 1
    39    19    39 1
    40    19    40 1
    41    20    41 1
    42    20    42 1
    43    21    43 1
    44    21    44 1
    45    21    45 1
    46    11    46 1
    47    12    47 1
@<TRIPOS>SUBSTRUCTURE
     1 EMJ         1 TEMP              0 ****  ****    0 ROOT
