@<TRIPOS>MOLECULE
EMJ
   47    47     1     0     0
SMALL
bcc


@<TRIPOS>ATOM
      1 C2          0.0440   -0.0250   -0.1220 c         1 EMJ      0.574500
      2 C3          1.5120    0.0660   -0.0230 cc        1 EMJ     -0.204400
      3 C4          2.1160    0.2070    1.1840 cd        1 EMJ      0.056900
      4 C5          1.3660    0.2700    2.4740 c         1 EMJ      0.560500
      5 C6         -0.0810    0.1460    2.3820 cc        1 EMJ     -0.347200
      6 C7         -0.6950    0.0050    1.1850 cd        1 EMJ      0.102900
      7 O8          1.9830    0.4160    3.5380 o         1 EMJ     -0.523100
      8 O9         -0.5620   -0.1130   -1.1910 o         1 EMJ     -0.462100
      9 O10         3.4800    0.3000    1.2460 oh        1 EMJ     -0.476100
     10 O11        -2.0410   -0.1200    1.0260 oh        1 EMJ     -0.453100
     11 C12         2.2760    0.0120   -1.2990 c3        1 EMJ     -0.028200
     12 C13         2.3860   -1.4070   -1.8270 c3        1 EMJ     -0.075400
     13 C14         3.1660   -1.4380   -3.1240 c3        1 EMJ     -0.077400
     14 C15         3.2790   -2.8500   -3.6590 c3        1 EMJ     -0.078400
     15 C16         4.0590   -2.8850   -4.9550 c3        1 EMJ     -0.079400
     16 C17         4.1730   -4.2970   -5.4900 c3        1 EMJ     -0.079400
     17 C18         4.9520   -4.3320   -6.7870 c3        1 EMJ     -0.079400
     18 C19         5.0670   -5.7430   -7.3210 c3        1 EMJ     -0.079400
     19 C20         5.8460   -5.7790   -8.6180 c3        1 EMJ     -0.079400
     20 C21         5.9610   -7.1900   -9.1540 c3        1 EMJ     -0.080400
     21 C22         6.7360   -7.2300  -10.4450 c3        1 EMJ     -0.092100
     22 H1         -0.6370    0.1720    3.3320 ha        1 EMJ      0.165000
     23 H2          3.7330    0.4190    2.1800 ho        1 EMJ      0.447000
     24 H3         -2.4660   -0.0910    1.9000 ho        1 EMJ      0.431000
     25 H4          3.3050    0.4350   -1.1400 hc        1 EMJ      0.065200
     26 H5          2.8940   -2.0550   -1.0660 hc        1 EMJ      0.046700
     27 H6          2.6580   -0.7880   -3.8840 hc        1 EMJ      0.041700
     28 H7          4.1920   -1.0160   -2.9580 hc        1 EMJ      0.041700
     29 H8          3.7850   -3.5010   -2.8980 hc        1 EMJ      0.040700
     30 H9          2.2530   -3.2720   -3.8250 hc        1 EMJ      0.040700
     31 H10         3.5520   -2.2350   -5.7160 hc        1 EMJ      0.040200
     32 H11         5.0850   -2.4620   -4.7890 hc        1 EMJ      0.040200
     33 H12         3.1470   -4.7200   -5.6560 hc        1 EMJ      0.039200
     34 H13         4.6790   -4.9470   -4.7290 hc        1 EMJ      0.039200
     35 H14         5.9780   -3.9080   -6.6210 hc        1 EMJ      0.039700
     36 H15         4.4450   -3.6820   -7.5480 hc        1 EMJ      0.039700
     37 H16         5.5740   -6.3940   -6.5600 hc        1 EMJ      0.039200
     38 H17         4.0410   -6.1670   -7.4870 hc        1 EMJ      0.039200
     39 H18         5.3380   -5.1290   -9.3800 hc        1 EMJ      0.039700
     40 H19         6.8710   -5.3550   -8.4530 hc        1 EMJ      0.039700
     41 H20         6.4680   -7.8390   -8.3900 hc        1 EMJ      0.038700
     42 H21         4.9350   -7.6130   -9.3160 hc        1 EMJ      0.038700
     43 H22         7.7700   -6.8350  -10.2980 hc        1 EMJ      0.032367
     44 H23         6.2330   -6.6090  -11.2260 hc        1 EMJ      0.032367
     45 H24         6.8090   -8.2790  -10.8220 hc        1 EMJ      0.032367
     46 H25         1.7540    0.6510   -2.0620 hc        1 EMJ      0.065200
     47 H26         1.3560   -1.8200   -1.9940 hc        1 EMJ      0.046700
@<TRIPOS>BOND
     1    1    2 1   
     2    1    6 1   
     3    1    8 2   
     4    2    3 2   
     5    2   11 1   
     6    3    4 1   
     7    3    9 1   
     8    4    5 1   
     9    4    7 2   
    10    5    6 2   
    11    5   22 1   
    12    6   10 1   
    13    9   23 1   
    14   10   24 1   
    15   11   12 1   
    16   11   25 1   
    17   11   46 1   
    18   12   13 1   
    19   12   26 1   
    20   12   47 1   
    21   13   14 1   
    22   13   27 1   
    23   13   28 1   
    24   14   15 1   
    25   14   29 1   
    26   14   30 1   
    27   15   16 1   
    28   15   31 1   
    29   15   32 1   
    30   16   17 1   
    31   16   33 1   
    32   16   34 1   
    33   17   18 1   
    34   17   35 1   
    35   17   36 1   
    36   18   19 1   
    37   18   37 1   
    38   18   38 1   
    39   19   20 1   
    40   19   39 1   
    41   19   40 1   
    42   20   21 1   
    43   20   41 1   
    44   20   42 1   
    45   21   43 1   
    46   21   44 1   
    47   21   45 1   
@<TRIPOS>SUBSTRUCTURE
     1 EMJ         1 TEMP              0 ****  ****    0 ROOT
