@<TRIPOS>MOLECULE
molecule
   56    59     1     0     0
SMALL
bcc


@<TRIPOS>ATOM
      1 C1           0.0000     0.0000     0.0000 cc         1 EML      -0.244100
      2 N1          -2.6400     0.0100    -5.3260 nu         1 EML      -0.738300
      3 O1          -5.8550     1.0100   -13.9850 oh         1 EML      -0.606800
      4 S1          -0.9900     0.0300    -7.7760 ss         1 EML       0.228200
      5 C2           0.8200     0.0020    -3.1100 cc         1 EML      -0.274600
      6 N2          -2.5550     0.0020    -2.3000 nd         1 EML      -0.295600
      7 C3           0.8340     0.0030    -4.4580 cd         1 EML       0.450600
      8 N3          -0.3750     0.0030    -2.4380 na         1 EML       0.089700
      9 C4          -2.9970     2.0530   -11.2130 c3         1 EML       0.152800
     10 N4           0.6940     0.0020     2.0790 na         1 EML      -0.034600
     11 C5          -1.4780     0.0030    -4.5700 cc         1 EML       0.756200
     12 N5           1.8160     0.0000     1.2420 nd         1 EML      -0.500800
     13 C6          -1.5470     0.0030    -3.1550 cc         1 EML      -0.185600
     14 N6          -1.7240     0.0420    -9.3050 nc         1 EML      -0.519100
     15 C7          -0.7150     0.0010    -1.1150 cc         1 EML      -0.060300
     16 N7          -0.3000     0.0080    -5.1640 nd         1 EML      -0.791000
     17 C8           1.4100     0.0000     0.0000 cc         1 EML       0.331200
     18 N8          -4.2230     1.4360   -10.6930 n3         1 EML      -0.712600
     19 C9          -2.0800     0.0010    -1.0560 cd         1 EML       0.009600
     20 C10         -0.4110     0.0040     1.3030 cd         1 EML      -0.090300
     21 C11         -2.4580     0.0220    -6.8800 cc         1 EML       0.189500
     22 C12         -3.4500     0.0300    -7.8110 cd         1 EML      -0.325300
     23 C14         -3.0110     0.0400    -9.1160 cd         1 EML       0.391600
     24 C15         -5.3060     1.5010   -11.6830 c3         1 EML       0.177200
     25 C16         -2.2010     2.6620   -10.0550 c3         1 EML      -0.094100
     26 C17         -4.8420     0.8530   -12.9900 c3         1 EML       0.108400
     27 C18         -6.5300     0.7530   -11.1500 c3         1 EML      -0.077100
     28 C20         -5.6740     2.9630   -11.9420 c3         1 EML      -0.077100
     29 HN1         -3.5320     0.0050    -4.8710 hn         1 EML       0.491800
     30 HO1         -5.5950     0.5600   -14.7720 ho         1 EML       0.400000
     31 H2           1.7520    -0.0020    -2.5580 h4         1 EML       0.165000
     32 H4          -2.3950     1.3010   -11.7080 h1         1 EML       0.039700
     33 H5          -3.2560     2.8310   -11.9210 h1         1 EML       0.039700
     34 HN4          0.7080     0.0030     3.0790 hn         1 EML       0.335700
     35 H8           2.0460    -0.0010    -0.8770 h4         1 EML       0.051100
     36 H9          -2.6750    -0.0020    -0.1510 h4         1 EML       0.181000
     37 H10         -1.4370     0.0070     1.6500 h4         1 EML       0.177000
     38 H12         -4.5010     0.0280    -7.5470 ha         1 EML       0.163000
     39 H13         -3.5560    -0.5090   -11.0990 h1         1 EML       0.052200
     40 H13A        -4.9110    -0.4060    -9.9670 h1         1 EML       0.052200
     41 H16         -1.9750     3.6970   -10.2780 hc         1 EML       0.042367
     42 H16A        -1.2780     2.1100    -9.9220 hc         1 EML       0.042367
     43 H15         -2.7880     2.6080    -9.1460 hc         1 EML       0.042367
     44 H17         -3.9300     1.3310   -13.3250 h1         1 EML       0.024200
     45 H17A        -4.6580    -0.2010   -12.8240 h1         1 EML       0.024200
     46 H18         -7.4100     1.0630   -11.7000 hc         1 EML       0.043200
     47 H18A        -6.6620     0.9800   -10.0990 hc         1 EML       0.043200
     48 H18B        -6.3840    -0.3130   -11.2730 hc         1 EML       0.043200
     49 H19          2.0340     0.4530    -6.1580 hc         1 EML       0.055700
     50 H19A         2.4990    -1.0230    -5.3000 hc         1 EML       0.055700
     51 H19B         2.8840     0.5600    -4.6100 hc         1 EML       0.055700
     52 H20         -4.9820     3.3890   -12.6580 hc         1 EML       0.043200
     53 H20A        -5.6190     3.5190   -11.0130 hc         1 EML       0.043200
     54 H20B        -6.6810     3.0180   -12.3370 hc         1 EML       0.043200
     55 C19          2.1560    -0.0020    -5.1830 c3         1 EML      -0.132400
     56 C13         -3.9770     0.0500   -10.2720 c3         1 EML       0.124500
@<TRIPOS>BOND
     1     1    15 1
     2     1    17 1
     3     2    11 1
     4     2    21 1
     5     4    14 1
     6     5     7 2
     7     6    13 2
     8     7    55 1
     9     8     5 1
    10    10    12 1
    11    11    16 2
    12    12    17 2
    13    13     8 1
    14    13    11 1
    15    15     8 1
    16    16     7 1
    17    18     9 1
    18    18    24 1
    19    19     6 1
    20    19    15 2
    21    20     1 2
    22    20    10 1
    23    21     4 1
    24    21    22 2
    25    22    23 1
    26    56    18 1
    27    23    14 2
    28    23    56 1
    29    24    28 1
    30    24    26 1
    31    25     9 1
    32    26     3 1
    33    27    24 1
    34     2    29 1
    35     3    30 1
    36     5    31 1
    37     9    32 1
    38     9    33 1
    39    10    34 1
    40    17    35 1
    41    19    36 1
    42    20    37 1
    43    22    38 1
    44    56    39 1
    45    56    40 1
    46    25    41 1
    47    25    42 1
    48    25    43 1
    49    26    44 1
    50    26    45 1
    51    27    46 1
    52    27    47 1
    53    27    48 1
    54    55    49 1
    55    55    50 1
    56    55    51 1
    57    28    52 1
    58    28    53 1
    59    28    54 1
@<TRIPOS>SUBSTRUCTURE
     1 EML         1 TEMP              0 ****  ****    0 ROOT
