@<TRIPOS>MOLECULE
EML
   56    59     1     0     0
SMALL
bcc


@<TRIPOS>ATOM
      1 C1           0.0000     0.0000     0.0000 cc         1 EML      -0.228100
      2 N1          -2.6400     0.0100    -5.3260 nu         1 EML      -0.259300
      3 O1          -5.8550     1.0100   -13.9850 oh         1 EML      -0.584800
      4 S1          -0.9900     0.0300    -7.7760 ss         1 EML       0.057200
      5 C2           0.8200     0.0020    -3.1100 cc         1 EML      -0.499600
      6 N2          -2.5550     0.0020    -2.3000 nd         1 EML      -0.225600
      7 C3           0.8340     0.0030    -4.4580 cd         1 EML       0.456600
      8 N3          -0.3750     0.0030    -2.4380 na         1 EML       0.702700
      9 C4          -2.9970     2.0530   -11.2130 c3         1 EML       0.129800
     10 N4           0.6940     0.0020     2.0790 na         1 EML       0.463400
     11 C5          -1.4780     0.0030    -4.5700 cc         1 EML       0.569200
     12 N5           1.8160     0.0000     1.2420 nd         1 EML      -0.649800
     13 C6          -1.5470     0.0030    -3.1550 cc         1 EML      -0.422600
     14 N6          -1.7240     0.0420    -9.3050 nc         1 EML      -0.423100
     15 C7          -0.7150     0.0010    -1.1150 cc         1 EML      -0.279300
     16 N7          -0.3000     0.0080    -5.1640 nd         1 EML      -0.687000
     17 C8           1.4100     0.0000     0.0000 cc         1 EML       0.371200
     18 N8          -4.2230     1.4360   -10.6930 n3         1 EML      -0.522600
     19 C9          -2.0800     0.0010    -1.0560 cd         1 EML       0.020600
     20 C10         -0.4110     0.0040     1.3030 cd         1 EML      -0.253300
     21 C11         -2.4580     0.0220    -6.8800 cc         1 EML       0.097500
     22 C12         -3.4500     0.0300    -7.8110 cd         1 EML      -0.284300
     23 C14         -3.0110     0.0400    -9.1160 cd         1 EML       0.390600
     24 C15         -5.3060     1.5010   -11.6830 c3         1 EML       0.106200
     25 C16         -2.2010     2.6620   -10.0550 c3         1 EML      -0.026100
     26 C17         -4.8420     0.8530   -12.9900 c3         1 EML       0.181400
     27 C18         -6.5300     0.7530   -11.1500 c3         1 EML       0.002900
     28 C20         -5.6740     2.9630   -11.9420 c3         1 EML       0.002900
     29 HN1         -3.5320     0.0050    -4.8710 hn         1 EML       0.317800
     30 HO1         -5.5950     0.5600   -14.7720 ho         1 EML       0.388000
     31 H2           1.7520    -0.0020    -2.5580 h4         1 EML       0.161000
     32 H4          -2.3950     1.3010   -11.7080 h1         1 EML       0.021200
     33 H5          -3.2560     2.8310   -11.9210 h1         1 EML       0.021200
     34 HN4          0.7080     0.0030     3.0790 hn         1 EML       0.148700
     35 H8           2.0460    -0.0010    -0.8770 h4         1 EML       0.009100
     36 H9          -2.6750    -0.0020    -0.1510 h4         1 EML       0.144000
     37 H10         -1.4370     0.0070     1.6500 h4         1 EML       0.151000
     38 H12         -4.5010     0.0280    -7.5470 ha         1 EML       0.138000
     39 H13         -3.5560    -0.5090   -11.0990 h1         1 EML       0.028700
     40 H13A        -4.9110    -0.4060    -9.9670 h1         1 EML       0.028700
     41 H16         -1.9750     3.6970   -10.2780 hc         1 EML       0.015033
     42 H16A        -1.2780     2.1100    -9.9220 hc         1 EML       0.015033
     43 H15         -2.7880     2.6080    -9.1460 hc         1 EML       0.015033
     44 H17         -3.9300     1.3310   -13.3250 h1         1 EML      -0.003300
     45 H17A        -4.6580    -0.2010   -12.8240 h1         1 EML      -0.003300
     46 H18         -7.4100     1.0630   -11.7000 hc         1 EML       0.013700
     47 H18A        -6.6620     0.9800   -10.0990 hc         1 EML       0.013700
     48 H18B        -6.3840    -0.3130   -11.2730 hc         1 EML       0.013700
     49 H19          2.0340     0.4530    -6.1580 hc         1 EML       0.019367
     50 H19A         2.4990    -1.0230    -5.3000 hc         1 EML       0.019367
     51 H19B         2.8840     0.5600    -4.6100 hc         1 EML       0.019367
     52 H20         -4.9820     3.3890   -12.6580 hc         1 EML       0.013700
     53 H20A        -5.6190     3.5190   -11.0130 hc         1 EML       0.013700
     54 H20B        -6.6810     3.0180   -12.3370 hc         1 EML       0.013700
     55 C19          2.1560    -0.0020    -5.1830 c3         1 EML      -0.039400
     56 C13         -3.9770     0.0500   -10.2720 c3         1 EML       0.097500
@<TRIPOS>BOND
     1     1    15 1   
     2     1    17 1   
     3     1    20 2   
     4     2    11 1   
     5     2    21 1   
     6     2    29 1   
     7     3    26 1   
     8     3    30 1   
     9     4    14 1   
    10     4    21 1   
    11     5     7 2   
    12     5     8 1   
    13     5    31 1   
    14     6    13 2   
    15     6    19 1   
    16     7    16 1   
    17     7    55 1   
    18     8    13 1   
    19     8    15 1   
    20     9    18 1   
    21     9    25 1   
    22     9    32 1   
    23     9    33 1   
    24    10    12 1   
    25    10    20 1   
    26    10    34 1   
    27    11    13 1   
    28    11    16 2   
    29    12    17 2   
    30    14    23 2   
    31    15    19 2   
    32    17    35 1   
    33    18    24 1   
    34    18    56 1   
    35    19    36 1   
    36    20    37 1   
    37    21    22 2   
    38    22    23 1   
    39    22    38 1   
    40    23    56 1   
    41    24    26 1   
    42    24    27 1   
    43    24    28 1   
    44    25    41 1   
    45    25    42 1   
    46    25    43 1   
    47    26    44 1   
    48    26    45 1   
    49    27    46 1   
    50    27    47 1   
    51    27    48 1   
    52    28    52 1   
    53    28    53 1   
    54    28    54 1   
    55    39    56 1   
    56    40    56 1   
    57    49    55 1   
    58    50    55 1   
    59    51    55 1   
@<TRIPOS>SUBSTRUCTURE
     1 EML         1 TEMP              0 ****  ****    0 ROOT
