@<TRIPOS>MOLECULE
molecule
   13    12     1     0     0
SMALL
bcc


@<TRIPOS>ATOM
      1 C1           0.0000     0.0000     0.0000 c2         1 EMM       0.052600
      2 C2           2.1230     0.0000     1.2700 c3         1 EMM       0.100300
      3 C            2.0660    -0.0000    -1.1650 c          1 EMM       0.984600
      4 O            1.4590    -0.0000    -2.2180 o          1 EMM      -0.854800
      5 N            1.3920     0.0000     0.0000 n          1 EMM      -0.407000
      6 C3          -0.6610     0.0000     1.1420 c2         1 EMM      -0.437000
      7 OXT          3.4130    -0.0000    -1.1640 o          1 EMM      -0.854800
      8 H1          -0.5410     0.0000    -0.9380 h4         1 EMM       0.151000
      9 H2C1         1.8600    -0.8850     1.8380 h1         1 EMM       0.025367
     10 H2C2         1.8600     0.8850     1.8380 h1         1 EMM       0.025367
     11 H2C3         3.1880    -0.0000     1.0730 h1         1 EMM       0.025367
     12 H3C1        -1.7440     0.0000     1.1410 ha         1 EMM       0.094000
     13 H3C2        -0.1200     0.0000     2.0810 ha         1 EMM       0.094000
@<TRIPOS>BOND
     1     1     5 1
     2     1     6 2
     3     1     8 1
     4     2     5 1
     5     2     9 1
     6     2    10 1
     7     2    11 1
     8     3     4 1
     9     3     5 1
    10     3     7 1
    11     6    12 1
    12     6    13 1
@<TRIPOS>SUBSTRUCTURE
     1 EMM         1 TEMP              0 ****  ****    0 ROOT
