@<TRIPOS>MOLECULE
molecule
   38    37     1     0     0
SMALL
bcc


@<TRIPOS>ATOM
      1 CAA          0.0000     0.0000     0.0000 c3         1 EMN       0.127700
      2 CAB         10.5830     5.4880    -2.7630 c3         1 EMN      -0.122100
      3 CAC          5.3420     3.8040     0.7080 c3         1 EMN      -0.082100
      4 NAD          8.7990     6.5160    -1.4350 nz         1 EMN      -0.806600
      5 CAE          2.0110     0.0000     1.3050 c3         1 EMN       0.141400
      6 CAF          3.5360     0.0000     1.1840 c3         1 EMN       0.140400
      7 CAG          8.9170     4.0740    -1.5530 c3         1 EMN       0.115400
      8 CAH          5.3830     1.3230     0.4190 c3         1 EMN       0.147400
      9 CAI          7.2290     2.7200    -0.5210 c3         1 EMN       0.143400
     10 OAJ          1.4300     0.0000     0.0000 os         1 EMN      -0.424600
     11 OAK          3.9670     1.2210     0.5790 os         1 EMN      -0.415600
     12 OAL          7.5320     3.9210    -1.2360 os         1 EMN      -0.454600
     13 CAM          9.1240     5.3840    -2.3140 c3         1 EMN       0.106500
     14 CAN          5.7260     2.6630    -0.2350 c3         1 EMN      -0.073700
     15 HAA         -0.3610    -0.8980     0.4870 h1         1 EMN       0.033700
     16 HAAA        -0.3610     0.0270    -1.0210 h1         1 EMN       0.033700
     17 HAAB        -0.3610     0.8710     0.5340 h1         1 EMN       0.033700
     18 HABB        10.7270     6.4120    -3.3100 hc         1 EMN       0.078700
     19 HAC          4.9130     3.3950     1.6150 hc         1 EMN       0.039367
     20 HACA         4.6160     4.4450     0.2220 hc         1 EMN       0.039367
     21 HACB         6.2250     4.3810     0.9550 hc         1 EMN       0.039367
     22 HNAD         9.1500     7.3620    -1.8380 hn         1 EMN       0.457800
     23 HNAA         9.2210     6.3740    -0.5390 hn         1 EMN       0.457800
     24 HAE          1.6920    -0.8840     1.8420 h1         1 EMN       0.037700
     25 HAEA         1.6920     0.8840     1.8420 h1         1 EMN       0.037700
     26 HAF          3.8500    -0.8370     0.5710 h1         1 EMN       0.036700
     27 HAFA         3.9760    -0.0890     2.1700 h1         1 EMN       0.036700
     28 HAG          9.2390     3.2430    -2.1700 h1         1 EMN       0.065200
     29 HAGA         9.4970     4.0910    -0.6390 h1         1 EMN       0.065200
     30 HAH          5.8610     1.2610     1.3890 h1         1 EMN       0.027200
     31 HAHA         5.7350     0.5140    -0.2090 h1         1 EMN       0.027200
     32 HAI          7.7750     2.7090     0.4150 h1         1 EMN       0.040700
     33 HAIA         7.5160     1.8630    -1.1170 h1         1 EMN       0.040700
     34 HAM          8.4770     5.4040    -3.1820 hx         1 EMN       0.129700
     35 HAN          5.1780     2.7620    -1.1640 hc         1 EMN       0.084700
     36 HAB         10.8250     4.6480    -3.4030 hc         1 EMN       0.078700
     37 HAD3         7.8060     6.5830    -1.3310 hn         1 EMN       0.457800
     38 HABA        11.2300     5.4780    -1.8940 hc         1 EMN       0.078700
@<TRIPOS>BOND
     1     1    10 1
     2     2    13 1
     3     3    14 1
     4     4    13 1
     5     5     6 1
     6     5    10 1
     7     6    11 1
     8     7    12 1
     9     7    13 1
    10     8    11 1
    11     8    14 1
    12     9    12 1
    13     9    14 1
    14     1    15 1
    15     1    16 1
    16     1    17 1
    17     2    36 1
    18     2    38 1
    19     2    18 1
    20     3    19 1
    21     3    20 1
    22     3    21 1
    23     4    22 1
    24     4    23 1
    25     5    24 1
    26     5    25 1
    27     6    26 1
    28     6    27 1
    29     7    28 1
    30     7    29 1
    31     8    30 1
    32     8    31 1
    33     9    32 1
    34     9    33 1
    35    13    34 1
    36    14    35 1
    37    37     4 1
@<TRIPOS>SUBSTRUCTURE
     1 EMN         1 TEMP              0 ****  ****    0 ROOT
