@<TRIPOS>MOLECULE
molecule
   30    32     1     0     0
SMALL
bcc


@<TRIPOS>ATOM
      1 C1           0.0000     0.0000     0.0000 ca         1 EMO       0.184100
      2 O1          -0.6790     0.0010    -1.1740 oh         1 EMO      -0.467100
      3 C2           1.3890     0.0000     0.0000 ca         1 EMO      -0.225000
      4 C3           2.0870     0.0000     1.1960 ca         1 EMO       0.149100
      5 O3           3.4440     0.0010     1.1850 oh         1 EMO      -0.518100
      6 C4           1.4060    -0.0000     2.4100 ca         1 EMO      -0.138000
      7 C5           0.0160    -0.0000     2.4270 ca         1 EMO      -0.094600
      8 C6          -0.7110    -0.0020     3.7120 c          1 EMO       0.592300
      9 O6          -0.0980    -0.0020     4.7610 o          1 EMO      -0.512100
     10 C7          -2.1890    -0.0020     3.7190 ca         1 EMO      -0.106600
     11 C8          -2.8860     0.0000     4.9230 ca         1 EMO      -0.109000
     12 C9          -4.2710    -0.0060     4.9230 ca         1 EMO      -0.041300
     13 C10         -5.0190    -0.0070     6.2320 c3         1 EMO      -0.052800
     14 C16         -4.9720    -0.0050     3.7350 ca         1 EMO      -0.193000
     15 C17         -4.2950    -0.0040     2.5190 ca         1 EMO       0.173100
     16 O17         -4.9890    -0.0030     1.3540 oh         1 EMO      -0.471100
     17 C18         -2.8970    -0.0030     2.5040 ca         1 EMO      -0.160600
     18 C19         -2.1690    -0.0010     1.2220 c          1 EMO       0.581300
     19 O19         -2.7830    -0.0010     0.1730 o          1 EMO      -0.469100
     20 C20         -0.6970    -0.0000     1.2130 ca         1 EMO      -0.165600
     21 HO1         -0.2150     0.5260    -1.8050 ho         1 EMO       0.425000
     22 H2           1.9290    -0.0040    -0.9390 ha         1 EMO       0.150000
     23 HO3          3.7590    -0.8870     1.2000 ho         1 EMO       0.428000
     24 H4           1.9590    -0.0000     3.3410 ha         1 EMO       0.167000
     25 H8          -2.3440     0.0010     5.8610 ha         1 EMO       0.158000
     26 H101        -6.0480     0.2850     6.0600 hc         1 EMO       0.050367
     27 H102        -4.5530     0.6940     6.9140 hc         1 EMO       0.050367
     28 H103        -4.9920    -1.0020     6.6610 hc         1 EMO       0.050367
     29 H16         -6.0550    -0.0100     3.7490 ha         1 EMO       0.141000
     30 H17         -5.7350    -0.5750     1.4320 ho         1 EMO       0.423000
@<TRIPOS>BOND
     1     1     2 1
     2     1     3 ar
     3     1    20 ar
     4     2    21 1
     5     3     4 ar
     6     3    22 1
     7     4     5 1
     8     4     6 ar
     9     5    23 1
    10     6     7 ar
    11     6    24 1
    12     7     8 1
    13     7    20 ar
    14     8     9 2
    15     8    10 1
    16    10    11 ar
    17    10    17 ar
    18    11    12 ar
    19    11    25 1
    20    12    13 1
    21    12    14 ar
    22    13    26 1
    23    13    27 1
    24    13    28 1
    25    14    15 ar
    26    14    29 1
    27    15    16 1
    28    15    17 ar
    29    16    30 1
    30    17    18 1
    31    18    19 2
    32    18    20 1
@<TRIPOS>SUBSTRUCTURE
     1 EMO         1 TEMP              0 ****  ****    0 ROOT
