@<TRIPOS>MOLECULE
EMO
   30    32     1     0     0
SMALL
bcc


@<TRIPOS>ATOM
      1 C1         -0.0480    0.1140   -0.0300 ca        1 EMO      0.202100
      2 O1         -0.7830    0.1260   -1.1850 oh        1 EMO     -0.458100
      3 C2          1.3300    0.3800   -0.0370 ca        1 EMO     -0.244000
      4 C3          2.0220    0.3670    1.1780 ca        1 EMO      0.176100
      5 O3          3.3690    0.6240    1.1180 oh        1 EMO     -0.490100
      6 C4          1.3570    0.1060    2.3880 ca        1 EMO     -0.209000
      7 C5         -0.0140   -0.1440    2.3740 ca        1 EMO     -0.060600
      8 C6         -0.7000   -0.3920    3.6650 c         1 EMO      0.585300
      9 O6         -0.0690   -0.6680    4.6940 o         1 EMO     -0.517100
     10 C7         -2.1740   -0.2560    3.6610 ca        1 EMO     -0.098600
     11 C8         -2.8380   -0.1100    4.8780 ca        1 EMO     -0.125000
     12 C9         -4.2320    0.0490    4.9150 ca        1 EMO     -0.024300
     13 C10        -4.9190    0.1950    6.2190 c3        1 EMO     -0.062800
     14 C16        -4.9500    0.0600    3.7230 ca        1 EMO     -0.206000
     15 C17        -4.2810   -0.0980    2.4960 ca        1 EMO      0.171100
     16 O17        -4.9530   -0.0760    1.3010 oh        1 EMO     -0.461100
     17 C18        -2.8830   -0.2670    2.4480 ca        1 EMO     -0.160600
     18 C19        -2.1820   -0.4740    1.1620 c         1 EMO      0.598300
     19 O19        -2.7580   -0.9010    0.1580 o         1 EMO     -0.476100
     20 C20        -0.7390   -0.1580    1.1720 ca        1 EMO     -0.190600
     21 HO1        -0.1800    0.2920   -1.9270 ho        1 EMO      0.424000
     22 H2          1.8650    0.5910   -0.9730 ha        1 EMO      0.159000
     23 HO3         3.7260    0.5730    2.0180 ho        1 EMO      0.429000
     24 H4          1.9060    0.0910    3.3420 ha        1 EMO      0.161000
     25 H8         -2.2590   -0.1230    5.8160 ha        1 EMO      0.159000
     26 H101       -4.4280    0.9930    6.8300 hc        1 EMO      0.052367
     27 H102       -5.9960    0.4640    6.0850 hc        1 EMO      0.052367
     28 H103       -4.8630   -0.7660    6.7890 hc        1 EMO      0.052367
     29 H16        -6.0430    0.1900    3.7330 ha        1 EMO      0.141000
     30 H17        -5.9010    0.0050    1.4900 ho        1 EMO      0.420000
@<TRIPOS>BOND
     1    1    2 1   
     2    1    3 ar  
     3    1   20 ar  
     4    2   21 1   
     5    3    4 ar  
     6    3   22 1   
     7    4    5 1   
     8    4    6 ar  
     9    5   23 1   
    10    6    7 ar  
    11    6   24 1   
    12    7    8 1   
    13    7   20 ar  
    14    8    9 2   
    15    8   10 1   
    16   10   11 ar  
    17   10   17 ar  
    18   11   12 ar  
    19   11   25 1   
    20   12   13 1   
    21   12   14 ar  
    22   13   26 1   
    23   13   27 1   
    24   13   28 1   
    25   14   15 ar  
    26   14   29 1   
    27   15   16 1   
    28   15   17 ar  
    29   16   30 1   
    30   17   18 1   
    31   18   19 2   
    32   18   20 1   
@<TRIPOS>SUBSTRUCTURE
     1 EMO         1 TEMP              0 ****  ****    0 ROOT
