@<TRIPOS>MOLECULE
EMP
   29    29     1     0     0
SMALL
bcc


@<TRIPOS>ATOM
      1 C1           0.0000     0.0000     0.0000 c3         1 EMP       0.403900
      2 C2           1.5290     0.0000     0.0000 c3         1 EMP      -0.070400
      3 C3           2.0840     0.0000     1.4240 c3         1 EMP       0.190100
      4 C4           1.4160     1.0700     2.3000 c3         1 EMP       0.035500
      5 C5          -0.1080     1.0300     2.1360 c3         1 EMP       0.179400
      6 C7           1.8600     4.7720     2.4690 c3         1 EMP       0.002900
      7 O1          -0.4370     0.0980    -1.3530 oh         1 EMP      -0.573800
      8 O3           1.8430    -1.2880     1.9930 os         1 EMP      -0.410600
      9 N4           1.9220     2.3990     1.9480 n7         1 EMP      -0.577200
     10 O5          -0.4900     1.1030     0.7620 os         1 EMP      -0.426600
     11 H1          -0.3590    -0.9250     0.4350 h2         1 EMP      -0.004300
     12 H21          1.8820    -0.8840    -0.5170 hc         1 EMP       0.041200
     13 H22          1.8820     0.8840    -0.5170 hc         1 EMP       0.041200
     14 H3           3.1500     0.1860     1.3890 h1         1 EMP       0.026700
     15 H4           1.6560     0.8670     3.3360 h1         1 EMP       0.051700
     16 H51         -0.5420     1.8680     2.6670 h1         1 EMP       0.020700
     17 H52         -0.4830     0.1050     2.5580 h1         1 EMP       0.020700
     18 H61          1.5540     3.1920     3.8340 h1         1 EMP       0.007700
     19 H62          0.2540     3.4150     2.6610 h1         1 EMP       0.007700
     20 H71          1.5190     5.0630     1.4830 hc         1 EMP       0.007033
     21 H72          1.5270     5.5030     3.1960 hc         1 EMP       0.007033
     22 H73          2.9420     4.7220     2.4760 hc         1 EMP       0.007033
     23 H81          1.5320    -1.1420     4.0170 h1         1 EMP      -0.007967
     24 H82          2.7030    -2.3680     3.5130 h1         1 EMP      -0.007967
     25 H83          3.1370    -0.6540     3.4550 h1         1 EMP      -0.007967
     26 HO1         -1.2680    -0.3370    -1.4470 ho         1 EMP       0.395000
     27 HN4          1.7050     2.5970     0.9910 hn         1 EMP       0.269800
     28 C6           1.3290     3.4180     2.7990 c3         1 EMP       0.131800
     29 C8           2.3330    -1.3680     3.3230 c3         1 EMP       0.237700
@<TRIPOS>BOND
     1     1     2 1   
     2     1     7 1   
     3     1    10 1   
     4     1    11 1   
     5     2     3 1   
     6     2    12 1   
     7     2    13 1   
     8     3     4 1   
     9     3     8 1   
    10     3    14 1   
    11     4     5 1   
    12     4     9 1   
    13     4    15 1   
    14     5    10 1   
    15     5    16 1   
    16     5    17 1   
    17     6    20 1   
    18     6    21 1   
    19     6    22 1   
    20     6    28 1   
    21     7    26 1   
    22     8    29 1   
    23     9    27 1   
    24     9    28 1   
    25    18    28 1   
    26    19    28 1   
    27    23    29 1   
    28    24    29 1   
    29    25    29 1   
@<TRIPOS>SUBSTRUCTURE
     1 EMP         1 TEMP              0 ****  ****    0 ROOT
