@<TRIPOS>MOLECULE
EMQ
   68    67     1     0     0
SMALL
bcc


@<TRIPOS>ATOM
      1 N1        252.2950    2.4590 -110.7400 n3        1 EMQ     -0.363000
      2 C2        245.8700    3.8950 -106.6790 c3        1 EMQ     -0.021000
      3 C3        245.7150    2.4380 -107.0330 c2        1 EMQ     -0.080000
      4 C4        244.8360    2.0490 -107.9780 c2        1 EMQ     -0.175000
      5 C5        246.5880    4.3260 -107.8740 c1        1 EMQ     -0.005000
      6 C6        247.1300    4.3190 -108.9470 c1        1 EMQ     -0.198000
      7 C7        245.2980    1.3750 -109.2020 c2        1 EMQ      0.049000
      8 N8        246.4810    1.7320 -109.5780 n2        1 EMQ     -0.255000
      9 C9        247.0510    1.7810 -110.8810 c3        1 EMQ      0.005000
     10 C10       247.8150    4.2700 -110.2010 c3        1 EMQ      0.195000
     11 C11       247.3270    3.2780 -111.2730 c3        1 EMQ     -0.130000
     12 C12       248.3270    3.3290 -112.4220 c3        1 EMQ     -0.184000
     13 C13       249.7370    2.9970 -111.9840 c3        1 EMQ     -0.244000
     14 C14       250.0940    3.5090 -110.6510 c2        1 EMQ      0.298000
     15 O15       249.2420    4.0250 -109.8160 os        1 EMQ     -0.111000
     16 C16       246.2610    1.1190 -111.9960 c2        1 EMQ      0.041000
     17 C17       246.8810   -0.0370 -112.6610 c3        1 EMQ     -0.226000
     18 C18       246.0760   -0.7010 -113.6860 c2        1 EMQ      0.057000
     19 C19       244.8120   -0.2630 -114.0060 c2        1 EMQ     -0.204000
     20 C20       244.2620    0.8460 -113.3410 c2        1 EMQ      0.135000
     21 C21       244.9910    1.5230 -112.3410 c2        1 EMQ     -0.217000
     22 F23       243.7670    4.1410 -105.4560 f         1 EMQ     -0.144667
     23 F24       244.7830    5.9840 -106.0230 f         1 EMQ     -0.144667
     24 F25       243.7290    4.8150 -107.5250 f         1 EMQ     -0.144667
     25 C26       251.5220    3.4940 -110.1250 c3        1 EMQ     -0.077000
     26 C27       250.6430   -0.9850 -111.5360 c2        1 EMQ      0.192000
     27 N28       254.4890    4.0500 -109.4240 n2        1 EMQ     -0.325000
     28 O29       249.6260   -0.3190 -111.7610 o         1 EMQ     -0.402000
     29 C30       255.0390    4.1140 -108.2780 c2        1 EMQ     -0.069000
     30 C31     -1153.3160  -18.9330  506.5970 c3        1 EMQ     -0.159000
     31 N32     -1153.6320  -19.3260  507.9660 n3        1 EMQ     -0.039000
     32 C33     -1154.8330  -19.2440  508.4560 c2        1 EMQ      0.050000
     33 C34     -1152.5000  -19.8170  508.7430 c3        1 EMQ     -0.159000
     34 HN1       252.9530    2.8270 -111.4000 hn        1 EMQ      0.196500
     35 H3        246.5000    4.0370 -105.7530 hc        1 EMQ      0.183000
     36 H4        246.5860    1.8190 -106.7540 ha        1 EMQ      0.162000
     37 H5        243.8250    2.4870 -108.0750 ha        1 EMQ      0.181000
     38 HN8       244.5520    0.8060 -109.7930 h4        1 EMQ      0.123000
     39 H9        244.5160    2.3850 -111.8360 ha        1 EMQ      0.188000
     40 H10       248.0570    1.2540 -110.8100 h1        1 EMQ      0.142000
     41 H11       247.8540    5.3040 -110.6710 h1        1 EMQ      0.160000
     42 H12       246.3450    3.7100 -111.6270 hc        1 EMQ      0.142000
     43 H12A      248.0190    2.6120 -113.2290 hc        1 EMQ      0.122000
     44 H13       248.3050    4.3570 -112.8790 hc        1 EMQ      0.122000
     45 H13A      250.4800    3.3810 -112.7430 hc        1 EMQ      0.192500
     46 H14       249.8980    1.8690 -111.9530 hc        1 EMQ      0.192500
     47 H17       247.8890    0.2690 -113.1070 hc        1 EMQ      0.234000
     48 H18       247.2070   -0.8020 -111.8740 hc        1 EMQ      0.234000
     49 H19       246.5230   -1.5760 -114.1980 ha        1 EMQ      0.196000
     50 H20       244.2160   -0.7800 -114.7840 ha        1 EMQ      0.207000
     51 H21       243.2410    1.1940 -113.6020 ha        1 EMQ      0.201000
     52 H26       251.9110    4.5420 -110.3330 h1        1 EMQ      0.164000
     53 H26A      251.4810    3.3860 -108.9990 h1        1 EMQ      0.164000
     54 HN28      250.6380   -2.0940 -111.5890 h4        1 EMQ      0.108500
     55 H30       255.0320    4.3930 -110.1910 hn        1 EMQ      0.147000
     56 H30A      254.4750    3.7450 -107.3990 h4        1 EMQ      0.124000
     57 H31       256.0480    4.5080 -108.0450 h4        1 EMQ      0.124000
     58 H31A    -1152.5450  -18.1140  506.6220 h1        1 EMQ      0.150000
     59 H33     -1154.2350  -18.5670  506.0630 h1        1 EMQ      0.150000
     60 H33A    -1155.0470  -19.5500  509.5030 h4        1 EMQ      0.204000
     61 H33B    -1155.6790  -18.8660  507.8420 h4        1 EMQ      0.204000
     62 H34     -1152.8200  -20.0990  509.7820 h1        1 EMQ      0.150000
     63 H34A    -1152.0680  -20.7190  508.2270 h1        1 EMQ      0.150000
     64 H34B    -1151.7180  -19.0100  508.7980 h1        1 EMQ      0.150000
     65 H121      252.7760    1.9090 -110.0540 hn        1 EMQ      0.196500
     66 H282      251.6060   -0.4990 -111.2710 h4        1 EMQ      0.108500
     67 H321    -1152.8950  -19.8230  506.0510 h1        1 EMQ      0.150000
     68 C22       244.5480    4.6990 -106.4310 c3        1 EMQ      0.433000
@<TRIPOS>BOND
     1    1   25 1
     2    1   34 1
     3    1   65 1
     4    2    3 1
     5    2    5 1
     6    2   35 1
     7    2   68 1
     8    3    4 1
     9    3   36 1
    10    4    7 1
    11    4   37 1
    12    5    6 1
    13    6   10 1
    14    7    8 1
    15    7   38 1
    16    8    9 1
    17    9   11 1
    18    9   16 1
    19    9   40 1
    20   10   11 1
    21   10   15 1
    22   10   41 1
    23   11   12 1
    24   11   42 1
    25   12   13 1
    26   12   43 1
    27   12   44 1
    28   13   14 1
    29   13   45 1
    30   13   46 1
    31   14   15 1
    32   14   25 1
    33   16   17 1
    34   16   21 1
    35   17   18 1
    36   17   47 1
    37   17   48 1
    38   18   19 1
    39   18   49 1
    40   19   20 1
    41   19   50 1
    42   20   21 1
    43   20   51 1
    44   21   39 1
    45   22   68 1
    46   23   68 1
    47   24   68 1
    48   25   52 1
    49   25   53 1
    50   26   28 1
    51   26   54 1
    52   26   66 1
    53   27   29 1
    54   27   55 1
    55   29   56 1
    56   29   57 1
    57   30   31 1
    58   30   58 1
    59   30   59 1
    60   30   67 1
    61   31   32 1
    62   31   33 1
    63   32   60 1
    64   32   61 1
    65   33   62 1
    66   33   63 1
    67   33   64 1
@<TRIPOS>SUBSTRUCTURE
     1 EMQ         1 TEMP              0 ****  ****    0 ROOT
