@<TRIPOS>MOLECULE
molecule
   24    24     1     0     0
SMALL
bcc


@<TRIPOS>ATOM
      1 O1           0.0000     0.0000     0.0000 os         1 EMR      -0.383600
      2 C2           1.4260     0.0000     0.0000 c3         1 EMR       0.129400
      3 C3           1.9420     0.0000     1.4390 c3         1 EMR       0.089300
      4 N4           1.5130    -1.2300     2.1160 n3         1 EMR      -0.657600
      5 C5           0.0460    -1.2450     2.0730 c3         1 EMR       0.089300
      6 C6          -0.4230    -1.2140     0.6180 c3         1 EMR       0.129400
      7 C1'          1.8930    -1.0900     3.5270 c3         1 EMR       0.111800
      8 C2'          1.4740    -2.3440     4.2960 c3         1 EMR       0.085800
      9 N2'          1.8530    -2.2040     5.7070 nz         1 EMR      -0.810600
     10 H21          1.7850    -0.8860    -0.5100 h1         1 EMR       0.070950
     11 H22          1.7850     0.8860    -0.5100 h1         1 EMR       0.070950
     12 H31          1.5420     0.8580     1.9650 h1         1 EMR       0.050700
     13 H32          3.0250     0.0480     1.4320 h1         1 EMR       0.050700
     14 H51         -0.3180    -2.1470     2.5490 h1         1 EMR       0.050700
     15 H52         -0.3370    -0.3760     2.5930 h1         1 EMR       0.050700
     16 H61          0.0040    -2.0550     0.0860 h1         1 EMR       0.070950
     17 H62         -1.5040    -1.2740     0.5890 h1         1 EMR       0.070950
     18 H1'1         1.3970    -0.2250     3.9500 h1         1 EMR       0.056700
     19 H1'2         2.9660    -0.9630     3.6010 h1         1 EMR       0.056700
     20 H2'1         0.4010    -2.4710     4.2220 hx         1 EMR       0.120700
     21 H2'2         1.9700    -3.2090     3.8730 hx         1 EMR       0.120700
     22 HN21         1.4470    -1.3690     6.0810 hn         1 EMR       0.457800
     23 HN22         2.8500    -2.1520     5.7810 hn         1 EMR       0.457800
     24 H2'3         1.5210    -2.9960     6.2220 hn         1 EMR       0.457800
@<TRIPOS>BOND
     1     1     2 1
     2     1     6 1
     3     2     3 1
     4     2    10 1
     5     2    11 1
     6     3     4 1
     7     3    12 1
     8     3    13 1
     9     4     5 1
    10     4     7 1
    11     5     6 1
    12     5    14 1
    13     5    15 1
    14     6    16 1
    15     6    17 1
    16     7     8 1
    17     7    18 1
    18     7    19 1
    19     8     9 1
    20     8    20 1
    21     8    21 1
    22     9    22 1
    23     9    23 1
    24    24     9 1
@<TRIPOS>SUBSTRUCTURE
     1 EMR         1 TEMP              0 ****  ****    0 ROOT
