@<TRIPOS>MOLECULE
molecule
   45    45     1     0     0
SMALL
bcc


@<TRIPOS>ATOM
      1 C2           0.0000     0.0000     0.0000 cc         1 EMS       0.008800
      2 C3           1.3590     0.0000     0.0000 cc         1 EMS       0.066100
      3 C4           2.0490     0.0000     1.2370 cc         1 EMS       0.029000
      4 C5           1.2960    -0.0000     2.4330 cc         1 EMS      -0.137200
      5 C6          -0.0560    -0.0000     2.3650 cd         1 EMS       0.054000
      6 CB           6.1880    -0.0920     1.4770 ce         1 EMS      -0.169600
      7 O3           2.0470    -0.0000    -1.1720 oh         1 EMS      -0.462100
      8 O1P          2.1550    -1.3760     6.7430 o          1 EMS      -0.844167
      9 O2P          0.0650     0.1320     7.2620 o          1 EMS      -0.844167
     10 O3P          2.2990     1.1420     6.6630 o          1 EMS      -0.844167
     11 O4P          1.0150     0.0000     4.8140 os         1 EMS      -0.597200
     12 N            4.1500     0.0000     0.1540 nf         1 EMS      -0.471300
     13 P            1.4030    -0.0010     6.3770 p5         1 EMS       1.198900
     14 C2A         -0.7470    -0.0070    -1.3090 c3         1 EMS      -0.041900
     15 C4A          3.4620     0.0010     1.2740 cf         1 EMS      -0.086400
     16 C5A          1.9910    -0.0000     3.7700 c3         1 EMS       0.265600
     17 N1          -0.6910    -0.0000     1.1680 na         1 EMS      -0.577800
     18 CA           5.4830    -0.1000     0.1870 ce         1 EMS       0.321600
     19 C            6.2120    -0.2150    -1.0160 c          1 EMS       0.819300
     20 O            5.5770    -0.1030    -2.2030 o          1 EMS      -0.852800
     21 CG           7.5030    -0.3040     1.5180 c2         1 EMS      -0.308200
     22 CD           8.2050    -0.4240     2.8450 c3         1 EMS       0.269000
     23 NE           8.9410    -1.6890     2.8970 nu         1 EMS      -0.824200
     24 CZ           9.6640    -2.0190     4.0180 c2         1 EMS       0.676100
     25 NH1         10.3560    -3.2070     4.0650 nz         1 EMS      -0.809600
     26 NH2          9.6940    -1.2070     5.0370 n2         1 EMS      -0.835100
     27 OXT          7.4130    -0.4160    -0.9820 o          1 EMS      -0.852800
     28 H1          -0.6380    -0.0000     3.2790 h4         1 EMS       0.205000
     29 H2           5.6260    -0.0050     2.3990 ha         1 EMS       0.120000
     30 H4           2.0590     0.8720    -1.5300 ho         1 EMS       0.407000
     31 H7          -1.8010    -0.1780    -1.1230 hc         1 EMS       0.038367
     32 H8          -0.6190     0.9480    -1.8030 hc         1 EMS       0.038367
     33 H9          -0.3600    -0.7960    -1.9420 hc         1 EMS       0.038367
     34 H10          3.9780     0.0010     2.2270 h4         1 EMS       0.111000
     35 H12          2.6110     0.8840     3.8550 h1         1 EMS       0.036200
     36 H13          2.6110    -0.8850     3.8550 h1         1 EMS       0.036200
     37 H14          8.0500    -0.4830     0.6000 ha         1 EMS       0.219000
     38 H16          8.8970     0.4010     2.9630 h1         1 EMS       0.058700
     39 H17          7.4740    -0.3990     3.6440 h1         1 EMS       0.058700
     40 H18          8.8980    -2.3240     2.1250 hn         1 EMS       0.449800
     41 H19         11.1870    -3.1320     3.5120 hn         1 EMS       0.401467
     42 H20          9.7810    -3.9420     3.7050 hn         1 EMS       0.401467
     43 H21         10.2200    -1.4460     5.8540 hn         1 EMS       0.401400
     44 H3          -1.6910    -0.0000     1.1450 hn         1 EMS       0.425800
     45 HH13        10.6070    -3.4100     5.0130 hn         1 EMS       0.401467
@<TRIPOS>BOND
     1    20    19 1
     2    19    27 1
     3    19    18 1
     4     6    18 1
     5     6    21 2
     6    18    12 2
     7    21    22 1
     8    12    15 1
     9    22    23 1
    10    10    13 1
    11     7     2 1
    12    15     3 2
    13     9    13 1
    14    23    24 1
    15    13    11 1
    16    13     8 1
    17     2     3 1
    18     2     1 2
    19     3     4 1
    20    11    16 1
    21    14     1 1
    22     1    17 1
    23    24    26 2
    24    24    25 1
    25     4    16 1
    26     4     5 2
    27    17     5 1
    28     5    28 1
    29     6    29 1
    30     7    30 1
    31    14    31 1
    32    14    32 1
    33    14    33 1
    34    15    34 1
    35    16    35 1
    36    16    36 1
    37    21    37 1
    38    22    38 1
    39    22    39 1
    40    23    40 1
    41    25    41 1
    42    25    42 1
    43    26    43 1
    44    17    44 1
    45    45    25 1
@<TRIPOS>SUBSTRUCTURE
     1 EMS         1 TEMP              0 ****  ****    0 ROOT
