@<TRIPOS>MOLECULE
molecule
   28    30     1     0     0
SMALL
bcc


@<TRIPOS>ATOM
      1 N1           0.0000     0.0000     0.0000 nb         1 EMU      -0.791000
      2 C2           1.3550     0.0000     0.0000 ca         1 EMU       0.688900
      3 N3           2.2020     0.0000     1.0530 nb         1 EMU      -0.733000
      4 C4           1.5170    -0.0010     2.2060 ca         1 EMU       0.445800
      5 C5           0.1400    -0.0010     2.3640 ca         1 EMU      -0.210200
      6 C6          -0.6260    -0.0010     1.2020 ca         1 EMU       0.766200
      7 C9          -2.8670    -0.0020     0.1040 c3         1 EMU       0.283100
      8 N7          -0.1960    -0.0000     3.6930 nc         1 EMU      -0.556100
      9 C8           0.9550    -0.0010     4.3330 cd         1 EMU       0.398700
     10 N9           2.0220    -0.0000     3.4750 na         1 EMU      -0.364000
     11 C10         -4.3230     0.0460     0.4600 ca         1 EMU      -0.119300
     12 C11         -5.0250    -1.1390     0.6480 ca         1 EMU      -0.109000
     13 C12         -6.3790    -1.0950     0.9790 ca         1 EMU      -0.132000
     14 C13         -7.0230     0.1350     1.1210 ca         1 EMU      -0.119000
     15 C14         -6.3110     1.3200     0.9310 ca         1 EMU      -0.132000
     16 C15         -4.9570     1.2750     0.6000 ca         1 EMU      -0.109000
     17 N10         -2.0300    -0.0010     1.2670 nu         1 EMU      -0.884900
     18 H2           1.8230     0.0010    -0.9770 h5         1 EMU       0.048100
     19 H9C1        -2.6740    -0.9020    -0.4670 h1         1 EMU       0.053700
     20 H9C2        -2.6240     0.8610    -0.5050 h1         1 EMU       0.053700
     21 H8           1.0460    -0.0020     5.4120 h5         1 EMU       0.072800
     22 H9           2.9900    -0.0010     3.7300 hn         1 EMU       0.317700
     23 H11         -4.5220    -2.0930     0.5370 ha         1 EMU       0.137000
     24 H12         -6.9310    -2.0150     1.1270 ha         1 EMU       0.133000
     25 H13         -8.0750     0.1690     1.3790 ha         1 EMU       0.132000
     26 H14         -6.8110     2.2750     1.0410 ha         1 EMU       0.133000
     27 H15         -4.4020     2.1940     0.4510 ha         1 EMU       0.137000
     28 H10         -2.4650    -0.0000     2.1680 hn         1 EMU       0.460800
@<TRIPOS>BOND
     1     1     2 ar
     2     1     6 ar
     3     2     3 ar
     4     2    18 1
     5     3     4 ar
     6     4     5 ar
     7     4    10 1
     8     5     6 ar
     9     5     8 1
    10     6    17 1
    11     7    11 1
    12     7    17 1
    13     7    19 1
    14     7    20 1
    15     8     9 2
    16     9    10 1
    17     9    21 1
    18    10    22 1
    19    11    12 ar
    20    11    16 ar
    21    12    13 ar
    22    12    23 1
    23    13    14 ar
    24    13    24 1
    25    14    15 ar
    26    14    25 1
    27    15    16 ar
    28    15    26 1
    29    16    27 1
    30    17    28 1
@<TRIPOS>SUBSTRUCTURE
     1 EMU         1 TEMP              0 ****  ****    0 ROOT
