@<TRIPOS>MOLECULE
molecule
   62    64     1     0     0
SMALL
bcc


@<TRIPOS>ATOM
      1 C10          0.0000     0.0000     0.0000 cc         1 EMV      -0.116000
      2 C15         -2.9330     0.0140     0.4450 cd         1 EMV      -0.046100
      3 C17         -3.9770     0.0050     2.7290 cd         1 EMV      -0.033100
      4 C21          4.0670     6.0810    -6.3610 c3         1 EMV       0.168000
      5 C22          3.0980     6.4090    -7.4670 c2         1 EMV      -0.163200
      6 C24          1.5770     7.9090    -8.5450 cg         1 EMV      -0.135300
      7 C26         -0.2530     8.4810   -10.3090 c3         1 EMV      -0.007900
      8 C28         -0.0170     8.2650   -11.7870 c3         1 EMV      -0.091100
      9 C01          4.3370     2.9860    -4.2820 ca         1 EMV      -0.038300
     10 C02          4.8210     1.8880    -4.9700 ca         1 EMV      -0.146000
     11 C03          4.5170     0.6090    -4.5400 ca         1 EMV      -0.106000
     12 C04          3.7310     0.4260    -3.4190 ca         1 EMV      -0.243000
     13 C05          3.2450     1.5260    -2.7260 ca         1 EMV       0.141100
     14 C06          3.5500     2.8060    -3.1610 ca         1 EMV      -0.168000
     15 O07          2.4720     1.3470    -1.6230 os         1 EMV      -0.316900
     16 C08          2.1980     0.0000    -1.2340 c3         1 EMV       0.179700
     17 C09          1.3320     0.0000     0.0000 cd         1 EMV      -0.012400
     18 C11         -0.5860     0.0000     1.2640 cc         1 EMV      -0.036000
     19 C12          0.2880    -0.0050     2.2840 cd         1 EMV      -0.060100
     20 S13          1.9300     0.0000     1.6540 ss         1 EMV      -0.163800
     21 C14         -2.0580     0.0070     1.4660 cc         1 EMV      -0.045000
     22 S16         -4.5740     0.0200     1.0750 ss         1 EMV      -0.242800
     23 C18         -2.6450     0.0070     2.7290 cc         1 EMV      -0.143000
     24 N20          3.6530     4.8340    -5.7040 n3         1 EMV      -0.689600
     25 C23          2.4980     7.5950    -7.4930 ce         1 EMV      -0.056700
     26 C25          0.8380     8.1680    -9.4200 c1         1 EMV      -0.084100
     27 C27         -0.5650     9.9800   -10.4050 c3         1 EMV      -0.091100
     28 C29         -1.7760     7.8360    -9.6300 c3         1 EMV      -0.091100
     29 C30          2.3510     4.9940    -5.0430 c3         1 EMV       0.130800
     30 C31          2.4720     6.0300    -3.9230 c3         1 EMV      -0.161100
     31 H1          -0.6010     0.1100    -0.8950 ha         1 EMV       0.160000
     32 H2          -3.0590    -0.2220    -0.6050 h4         1 EMV       0.176000
     33 H3          -4.7770     0.0790     3.4560 h4         1 EMV       0.173000
     34 H4           3.7900     6.8920    -5.6990 h1         1 EMV       0.049200
     35 H5           5.1170     5.9470    -6.5910 h1         1 EMV       0.049200
     36 H6           3.1350     5.8340    -8.3840 ha         1 EMV       0.128000
     37 H7          -0.3140     8.9090   -12.6060 hc         1 EMV       0.043144
     38 H8          -0.5760     7.3390   -11.8370 hc         1 EMV       0.043144
     39 H9           1.0410     8.1650   -11.9990 hc         1 EMV       0.043144
     40 H10          5.3390     1.8500    -5.9210 ha         1 EMV       0.142000
     41 H11          5.1110    -0.2740    -4.7410 ha         1 EMV       0.131000
     42 H12          3.7120    -0.6120    -3.1090 ha         1 EMV       0.130000
     43 H13          2.9930     3.5540    -2.6090 ha         1 EMV       0.152000
     44 H14          2.4620    -0.7980    -1.9170 h1         1 EMV       0.054200
     45 H15          3.0000    -0.0690    -0.5100 h1         1 EMV       0.054200
     46 H16          0.2390     0.2060     3.3450 h4         1 EMV       0.175000
     47 H17         -1.8150    -0.1290     3.4130 ha         1 EMV       0.163000
     48 H18          5.7090     4.2000    -4.4800 h1         1 EMV       0.065700
     49 H19          4.3840     5.1230    -4.0210 h1         1 EMV       0.065700
     50 H21          3.1040     8.0190    -6.7020 ha         1 EMV       0.159000
     51 H22         -1.3810    10.4960   -10.8950 hc         1 EMV       0.043144
     52 H23         -1.0030    10.2820    -9.4620 hc         1 EMV       0.043144
     53 H24          0.2570    10.5050   -10.8760 hc         1 EMV       0.043144
     54 H25         -2.4740     8.6630    -9.5880 hc         1 EMV       0.043144
     55 H26         -1.3970     7.2810    -8.7800 hc         1 EMV       0.043144
     56 H27         -2.0280     7.2930   -10.5320 hc         1 EMV       0.043144
     57 H28          1.4460     5.4460    -5.4300 h1         1 EMV       0.080200
     58 H29          2.2410     3.9420    -4.8090 h1         1 EMV       0.080200
     59 H30          3.0050     5.4790    -3.1580 hc         1 EMV       0.045367
     60 H31          3.1740     6.7510    -4.3260 hc         1 EMV       0.045367
     61 H32          1.5570     6.3090    -3.4140 hc         1 EMV       0.045367
     62 C19          4.6750     4.3770    -4.7510 c3         1 EMV       0.156100
@<TRIPOS>BOND
     1    62     9 1
     2    62    24 1
     3     9    10 ar
     4     9    14 ar
     5    10    11 ar
     6    14    13 ar
     7    11    12 ar
     8    13    12 ar
     9    13    15 1
    10    20    17 1
    11    20    19 1
    12    16    17 1
    13    16    15 1
    14    17     1 2
    15    19    18 2
    16    23    21 1
    17    23     3 2
    18     1    18 1
    19    18    21 1
    20    29    24 1
    21    29    30 1
    22    21     2 2
    23     3    22 1
    24    24     4 1
    25     2    22 1
    26     4     5 1
    27     5    25 2
    28    25     6 1
    29    28     7 1
    30     6    26 3
    31    26     7 1
    32     7    27 1
    33     7     8 1
    34     1    31 1
    35     2    32 1
    36     3    33 1
    37     4    34 1
    38     4    35 1
    39     5    36 1
    40     8    37 1
    41     8    38 1
    42     8    39 1
    43    10    40 1
    44    11    41 1
    45    12    42 1
    46    14    43 1
    47    16    44 1
    48    16    45 1
    49    19    46 1
    50    23    47 1
    51    62    48 1
    52    62    49 1
    53    25    50 1
    54    27    51 1
    55    27    52 1
    56    27    53 1
    57    28    54 1
    58    28    55 1
    59    28    56 1
    60    29    57 1
    61    29    58 1
    62    30    59 1
    63    30    60 1
    64    30    61 1
@<TRIPOS>SUBSTRUCTURE
     1 EMV         1 TEMP              0 ****  ****    0 ROOT
