@<TRIPOS>MOLECULE
EMV
   62    65     1     0     0
SMALL
bcc


@<TRIPOS>ATOM
      1 C10          0.0000     0.0000     0.0000 c2         1 EMV      -0.091000
      2 C15         -2.9330     0.0140     0.4450 c2         1 EMV      -0.265000
      3 C17         -3.9770     0.0050     2.7290 c2         1 EMV      -0.236000
      4 C21          4.0670     6.0810    -6.3610 c3         1 EMV      -0.581000
      5 C22          3.0980     6.4090    -7.4670 c2         1 EMV      -0.179000
      6 C24          1.5770     7.9090    -8.5450 c1         1 EMV       0.109000
      7 C26         -0.2030     8.2000   -10.5670 c3         1 EMV       0.111000
      8 C28          0.6990     8.2970   -11.6670 c3         1 EMV      -0.127333
      9 C01          4.3370     2.9860    -4.2820 ca         1 EMV      -0.067000
     10 C02          4.8210     1.8880    -4.9700 ca         1 EMV      -0.115000
     11 C03          4.5170     0.6090    -4.5400 ca         1 EMV      -0.045000
     12 C04          3.7310     0.4260    -3.4190 ca         1 EMV      -0.233000
     13 C05          3.2450     1.5260    -2.7260 ca         1 EMV       0.118000
     14 C06          3.5500     2.8060    -3.1610 ca         1 EMV      -0.152000
     15 O07          2.4720     1.3470    -1.6230 os         1 EMV      -0.202000
     16 C08          2.1980     0.0000    -1.2340 c3         1 EMV       0.113000
     17 C09          1.3320     0.0000     0.0000 c2         1 EMV      -0.241000
     18 C11         -0.5860     0.0000     1.2640 c2         1 EMV      -0.046000
     19 C12          0.2880    -0.0050     2.2840 c2         1 EMV      -0.256000
     20 S13          1.9300     0.0000     1.6540 ss         1 EMV       0.292000
     21 C14         -2.0580     0.0070     1.4660 c2         1 EMV      -0.050000
     22 S16         -4.5740     0.0200     1.0750 ss         1 EMV       0.248000
     23 C18         -2.6450     0.0070     2.7290 c2         1 EMV      -0.133000
     24 N20          3.6530     4.8340    -5.7040 nx         1 EMV       0.398000
     25 C23          2.4980     7.5950    -7.4930 c2         1 EMV      -0.261000
     26 C25          0.8250     8.1860    -9.4040 c1         1 EMV      -0.183000
     27 C27         -1.2510     9.2550   -10.4690 c3         1 EMV      -0.127333
     28 C29         -0.7940     6.5880   -10.6300 c3         1 EMV      -0.127333
     29 C30          2.3510     4.9940    -5.0430 c3         1 EMV      -0.288000
     30 C31          2.4720     6.0300    -3.9230 c3         1 EMV      -0.186000
     31 H1          -0.6230    -0.1140    -0.8790 ha         1 EMV       0.129000
     32 H2          -2.7970    -0.4740    -0.5130 h4         1 EMV       0.153000
     33 H3          -4.6410    -0.1590     3.5690 h4         1 EMV       0.149000
     34 H4           3.6630     5.4910    -5.5470 DU         1 EMV       0.163000
     35 H5           4.5190     7.0260    -6.0870 hx         1 EMV       0.203000
     36 H6           2.0310     6.2400    -7.3910 ha         1 EMV       0.108000
     37 H7           0.2770     9.1150   -12.2400 hc         1 EMV       0.053333
     38 H8           0.6460     7.4860   -12.3830 hc         1 EMV       0.053333
     39 H9           1.7260     8.4980   -11.3870 hc         1 EMV       0.053333
     40 H10          5.3180     2.1800    -5.8870 ha         1 EMV       0.122000
     41 H11          4.8370    -0.3250    -4.9850 ha         1 EMV       0.105000
     42 H12          3.8520    -0.5830    -3.0440 ha         1 EMV       0.126000
     43 H13          2.9200     3.5460    -2.6820 ha         1 EMV       0.130000
     44 H14          3.1750    -0.1840    -0.8050 h1         1 EMV       0.058500
     45 H15          2.2010    -0.5400    -2.1730 h1         1 EMV       0.058500
     46 H16          0.0630     0.0280     3.3430 h4         1 EMV       0.156000
     47 H17         -1.8920     0.2480     3.4700 ha         1 EMV       0.133000
     48 H18          5.7490     4.3420    -4.8880 hx         1 EMV       0.087500
     49 H19          4.6410     5.0380    -3.8930 hx         1 EMV       0.087500
     50 H21          1.7220     7.8910    -8.1890 ha         1 EMV       0.040000
     51 H22         -2.0320     9.0500   -11.1910 hc         1 EMV       0.053333
     52 H23         -1.6220     9.0010    -9.4830 hc         1 EMV       0.053333
     53 H24         -0.7440    10.2120   -10.4490 hc         1 EMV       0.053333
     54 H25         -1.7830     6.5730   -10.1890 hc         1 EMV       0.053333
     55 H26         -0.4170     5.9240    -9.8610 hc         1 EMV       0.053333
     56 H27         -1.0470     6.2720   -11.6350 hc         1 EMV       0.053333
     57 H28          1.7440     5.7050    -5.5890 hx         1 EMV       0.099500
     58 H29          1.5770     4.2400    -4.9620 hx         1 EMV       0.099500
     59 H30          2.9780     5.5100    -3.1190 hc         1 EMV       0.071667
     60 H31          3.1080     6.6090    -4.5820 hc         1 EMV       0.071667
     61 H32          1.6710     6.6490    -3.5380 hc         1 EMV       0.071667
     62 C19          4.6750     4.3770    -4.7510 c3         1 EMV      -0.103000
@<TRIPOS>BOND
     1     1    17 1   
     2     1    18 1   
     3     1    31 1   
     4     2    21 1   
     5     2    22 1   
     6     2    32 1   
     7     3    22 1   
     8     3    23 1   
     9     3    33 1   
    10     4     5 1   
    11     4    24 1   
    12     4    34 1   
    13     4    35 1   
    14     5    25 1   
    15     5    36 1   
    16     6    25 1   
    17     6    26 1   
    18     7     8 1   
    19     7    26 1   
    20     7    27 1   
    21     7    28 1   
    22     8    37 1   
    23     8    38 1   
    24     8    39 1   
    25     9    10 1   
    26     9    14 1   
    27     9    62 1   
    28    10    11 1   
    29    10    40 1   
    30    11    12 1   
    31    11    41 1   
    32    12    13 1   
    33    12    42 1   
    34    13    14 1   
    35    13    15 1   
    36    14    43 1   
    37    15    16 1   
    38    16    17 1   
    39    16    44 1   
    40    16    45 1   
    41    17    20 1   
    42    18    19 1   
    43    18    21 1   
    44    19    20 1   
    45    19    46 1   
    46    21    23 1   
    47    23    47 1   
    48    24    29 1   
    49    24    34 1   
    50    24    62 1   
    51    25    50 1   
    52    27    51 1   
    53    27    52 1   
    54    27    53 1   
    55    28    54 1   
    56    28    55 1   
    57    28    56 1   
    58    29    30 1   
    59    29    57 1   
    60    29    58 1   
    61    30    59 1   
    62    30    60 1   
    63    30    61 1   
    64    48    62 1   
    65    49    62 1   
@<TRIPOS>SUBSTRUCTURE
     1 EMV         1 TEMP              0 ****  ****    0 ROOT
