@<TRIPOS>MOLECULE
EMW
   56    59     1     0     0
SMALL
bcc


@<TRIPOS>ATOM
      1 C1           0.0000     0.0000     0.0000 c3         1 EMW       0.244700
      2 C3           2.0460     0.0000     1.2110 ca         1 EMW       0.135100
      3 C4           1.2910     0.0000     2.3740 ca         1 EMW      -0.194000
      4 C5           1.9170     0.0000     3.6050 ca         1 EMW      -0.079000
      5 C6           3.3040     0.0010     3.6780 ca         1 EMW      -0.114400
      6 C8           3.3010     0.4890     6.0090 c          1 EMW       0.589100
      7 O9           2.1560     0.8840     5.9110 o          1 EMW      -0.699100
      8 N10          3.9320     0.5380     7.1980 n          1 EMW      -0.181800
      9 C11          5.3490     0.1630     7.3170 c3         1 EMW       0.048000
     10 C12          6.0930     1.2920     8.0400 c3         1 EMW       0.114500
     11 C16          4.0540     2.0660     9.0940 c3         1 EMW       0.133800
     12 C17          3.2240     0.9740     8.4110 c3         1 EMW       0.066000
     13 C18          6.1490     2.4790    10.0650 ca         1 EMW       0.652200
     14 N22          7.5840     4.2770    11.5240 nb         1 EMW      -0.727000
     15 C23          7.4220     3.0600    12.0410 ca         1 EMW       0.357800
     16 C24          6.6860     2.1040    11.3140 ca         1 EMW      -0.547500
     17 C31          3.4320    -0.0050     1.2830 ca         1 EMW      -0.126000
     18 O2           1.4280     0.0000     0.0000 os         1 EMW      -0.310900
     19 N7           3.9400     0.0010     4.9270 ns         1 EMW      -0.057100
     20 C14          7.5350     0.8600     8.3140 c3         1 EMW      -0.006100
     21 N15          5.4190     1.5830     9.3120 nh         1 EMW      -0.516300
     22 N19          6.3570     3.7170     9.6330 nb         1 EMW      -0.752000
     23 C20          7.0580     4.5870    10.3510 ca         1 EMW       0.748900
     24 N21          7.2500     5.8630     9.8520 nv         1 EMW      -0.492500
     25 C25          6.6710     0.9200    12.0820 cc         1 EMW       0.491800
     26 N26          7.3390     1.1330    13.1800 nd         1 EMW      -0.649100
     27 N27          7.8210     2.4480    13.1910 na         1 EMW       0.369200
     28 C28          8.6180     3.0610    14.2580 c3         1 EMW       0.036600
     29 C29          4.0590     0.0000     2.5140 ca         1 EMW      -0.092300
     30 H1          -0.3610    -0.0020    -1.0210 h1         1 EMW      -0.002967
     31 H2          -0.3610     0.8850     0.5090 h1         1 EMW      -0.002967
     32 H3          -0.3610    -0.8840     0.5120 h1         1 EMW      -0.002967
     33 H4           0.2090     0.0020     2.3170 ha         1 EMW       0.121000
     34 H5           1.3270     0.0010     4.5140 ha         1 EMW       0.168000
     35 H6           5.7720     0.0230     6.3300 h1         1 EMW       0.026200
     36 H7           5.4350    -0.7530     7.8900 h1         1 EMW       0.026200
     37 H8           6.0890     2.1800     7.4190 h1         1 EMW       0.034700
     38 H9           3.6050     2.3160    10.0470 h1         1 EMW       0.028700
     39 H10          4.0810     2.9450     8.4610 h1         1 EMW       0.028700
     40 H11          3.1060     0.1340     9.0840 h1         1 EMW       0.040700
     41 H12          2.2530     1.3710     8.1410 h1         1 EMW       0.040700
     42 H13          5.8950    -0.8930     3.1170 hc         1 EMW       0.006367
     43 H14          5.9020     0.8760     3.1220 hc         1 EMW       0.006367
     44 H15          5.9770    -0.0050     1.5900 hc         1 EMW       0.006367
     45 H16          4.0220    -0.0060     0.3750 ha         1 EMW       0.118000
     46 H17          4.8470    -0.4100     5.0260 hn         1 EMW       0.174500
     47 H18          8.1240     1.7250     8.5910 hc         1 EMW       0.013700
     48 H19          7.5480     0.1390     9.1220 hc         1 EMW       0.013700
     49 H20          7.9530     0.4100     7.4210 hc         1 EMW       0.013700
     50 H21          7.7770     6.5320    10.3770 hn         1 EMW       0.276300
     51 H22          6.8560     6.1190     8.9680 hn         1 EMW       0.276300
     52 H23          6.1870    -0.0080    11.8050 h4         1 EMW       0.018800
     53 H24          8.0900     3.9200    14.6550 h1         1 EMW       0.020700
     54 H25          9.5730     3.3780    13.8580 h1         1 EMW       0.020700
     55 H26          8.7790     2.3390    15.0490 h1         1 EMW       0.020700
     56 C30          5.5640    -0.0060     2.5910 c3         1 EMW       0.064200
@<TRIPOS>BOND
     1     1    18 1   
     2     1    30 1   
     3     1    31 1   
     4     1    32 1   
     5     2     3 ar  
     6     2    17 ar  
     7     2    18 1   
     8     3     4 ar  
     9     3    33 1   
    10     4     5 ar  
    11     4    34 1   
    12     5    19 1   
    13     5    29 ar  
    14     6     7 2   
    15     6     8 1   
    16     6    19 1   
    17     8     9 1   
    18     8    12 1   
    19     9    10 1   
    20     9    35 1   
    21     9    36 1   
    22    10    20 1   
    23    10    21 1   
    24    10    37 1   
    25    11    12 1   
    26    11    21 1   
    27    11    38 1   
    28    11    39 1   
    29    12    40 1   
    30    12    41 1   
    31    13    16 ar  
    32    13    21 1   
    33    13    22 ar  
    34    14    15 ar  
    35    14    23 ar  
    36    15    16 ar  
    37    15    27 1   
    38    16    25 1   
    39    17    29 ar  
    40    17    45 1   
    41    19    46 1   
    42    20    47 1   
    43    20    48 1   
    44    20    49 1   
    45    22    23 ar  
    46    23    24 1   
    47    24    50 1   
    48    24    51 1   
    49    25    26 2   
    50    25    52 1   
    51    26    27 1   
    52    27    28 1   
    53    28    53 1   
    54    28    54 1   
    55    28    55 1   
    56    29    56 1   
    57    42    56 1   
    58    43    56 1   
    59    44    56 1   
@<TRIPOS>SUBSTRUCTURE
     1 EMW         1 TEMP              0 ****  ****    0 ROOT
