@<TRIPOS>MOLECULE
molecule
   56    59     1     0     0
SMALL
bcc


@<TRIPOS>ATOM
      1 C1           0.0000     0.0000     0.0000 c3         1 EMW       0.129700
      2 C3           2.0460     0.0000     1.2110 ca         1 EMW       0.123100
      3 C4           1.2910     0.0000     2.3740 ca         1 EMW      -0.207000
      4 C5           1.9170     0.0000     3.6050 ca         1 EMW      -0.099000
      5 C6           3.3040     0.0010     3.6780 ca         1 EMW       0.033600
      6 C8           3.3010     0.4890     6.0090 c          1 EMW       0.791100
      7 O9           2.1560     0.8840     5.9110 o          1 EMW      -0.653100
      8 N10          3.9320     0.5380     7.1980 n          1 EMW      -0.510800
      9 C11          5.3490     0.1630     7.3170 c3         1 EMW       0.109000
     10 C12          6.0930     1.2920     8.0400 c3         1 EMW       0.161500
     11 C16          4.0540     2.0660     9.0940 c3         1 EMW       0.149800
     12 C17          3.2240     0.9740     8.4110 c3         1 EMW       0.126000
     13 C18          6.1490     2.4790    10.0650 ca         1 EMW       0.749200
     14 N22          7.5840     4.2770    11.5240 nb         1 EMW      -0.843000
     15 C23          7.4220     3.0600    12.0410 ca         1 EMW       0.547800
     16 C24          6.6860     2.1040    11.3140 ca         1 EMW      -0.522500
     17 C31          3.4320    -0.0050     1.2830 ca         1 EMW      -0.142000
     18 O2           1.4280     0.0000     0.0000 os         1 EMW      -0.332900
     19 N7           3.9400     0.0010     4.9270 ns         1 EMW      -0.486100
     20 C14          7.5350     0.8600     8.3140 c3         1 EMW      -0.097100
     21 N15          5.4190     1.5830     9.3120 nh         1 EMW      -0.723300
     22 N19          6.3570     3.7170     9.6330 nb         1 EMW      -0.861000
     23 C20          7.0580     4.5870    10.3510 ca         1 EMW       0.990900
     24 N21          7.2500     5.8630     9.8520 nv         1 EMW      -0.986500
     25 C25          6.6710     0.9200    12.0820 cc         1 EMW       0.421800
     26 N26          7.3390     1.1330    13.1800 nd         1 EMW      -0.514100
     27 N27          7.8210     2.4480    13.1910 na         1 EMW      -0.035800
     28 C28          8.6180     3.0610    14.2580 c3         1 EMW       0.076600
     29 C29          4.0590     0.0000     2.5140 ca         1 EMW      -0.088300
     30 H1          -0.3610    -0.0020    -1.0210 h1         1 EMW       0.040033
     31 H2          -0.3610     0.8850     0.5090 h1         1 EMW       0.040033
     32 H3          -0.3610    -0.8840     0.5120 h1         1 EMW       0.040033
     33 H4           0.2090     0.0020     2.3170 ha         1 EMW       0.138000
     34 H5           1.3270     0.0010     4.5140 ha         1 EMW       0.186000
     35 H6           5.7720     0.0230     6.3300 h1         1 EMW       0.052200
     36 H7           5.4350    -0.7530     7.8900 h1         1 EMW       0.052200
     37 H8           6.0890     2.1800     7.4190 h1         1 EMW       0.058700
     38 H9           3.6050     2.3160    10.0470 h1         1 EMW       0.059700
     39 H10          4.0810     2.9450     8.4610 h1         1 EMW       0.059700
     40 H11          3.1060     0.1340     9.0840 h1         1 EMW       0.070700
     41 H12          2.2530     1.3710     8.1410 h1         1 EMW       0.070700
     42 H13          5.8950    -0.8930     3.1170 hc         1 EMW       0.042033
     43 H14          5.9020     0.8760     3.1220 hc         1 EMW       0.042033
     44 H15          5.9770    -0.0050     1.5900 hc         1 EMW       0.042033
     45 H16          4.0220    -0.0060     0.3750 ha         1 EMW       0.144000
     46 H17          4.8470    -0.4100     5.0260 hn         1 EMW       0.321500
     47 H18          8.1240     1.7250     8.5910 hc         1 EMW       0.047033
     48 H19          7.5480     0.1390     9.1220 hc         1 EMW       0.047033
     49 H20          7.9530     0.4100     7.4210 hc         1 EMW       0.047033
     50 H21          7.7770     6.5320    10.3770 hn         1 EMW       0.451800
     51 H22          6.8560     6.1190     8.9680 hn         1 EMW       0.451800
     52 H23          6.1870    -0.0080    11.8050 h4         1 EMW       0.066800
     53 H24          8.0900     3.9200    14.6550 h1         1 EMW       0.055700
     54 H25          9.5730     3.3780    13.8580 h1         1 EMW       0.055700
     55 H26          8.7790     2.3390    15.0490 h1         1 EMW       0.055700
     56 C30          5.5640    -0.0060     2.5910 c3         1 EMW      -0.045800
@<TRIPOS>BOND
     1    26    27 1
     2    26    25 2
     3    28    27 1
     4    27    15 1
     5    25    16 1
     6    15    16 ar
     7    15    14 ar
     8    16    13 ar
     9    20    10 1
    10    14    23 ar
    11    13    21 1
    12    13    22 ar
    13    10    21 1
    14    10     9 1
    15    21    11 1
    16    23    22 ar
    17    23    24 1
    18    11    12 1
    19    56    29 1
    20     9     8 1
    21     8    12 1
    22     8     6 1
    23    29    17 ar
    24    29     5 ar
    25    19     6 1
    26    19     5 1
    27     6     7 2
    28    17     2 ar
    29     5     4 ar
    30     2    18 1
    31     2     3 ar
    32     4     3 ar
    33    18     1 1
    34     1    30 1
    35     1    31 1
    36     1    32 1
    37     3    33 1
    38     4    34 1
    39     9    35 1
    40     9    36 1
    41    10    37 1
    42    11    38 1
    43    11    39 1
    44    12    40 1
    45    12    41 1
    46    56    42 1
    47    56    43 1
    48    56    44 1
    49    17    45 1
    50    19    46 1
    51    20    47 1
    52    20    48 1
    53    20    49 1
    54    24    50 1
    55    24    51 1
    56    25    52 1
    57    28    53 1
    58    28    54 1
    59    28    55 1
@<TRIPOS>SUBSTRUCTURE
     1 EMW         1 TEMP              0 ****  ****    0 ROOT
