@<TRIPOS>MOLECULE
molecule
   27    27     1     0     0
SMALL
bcc


@<TRIPOS>ATOM
      1 C4           0.0000     0.0000     0.0000 c3         1 EMZ       0.100100
      2 C5           1.5300     0.0000     0.0000 c3         1 EMZ       0.157100
      3 C6           2.0410     1.2490    -0.7210 c3         1 EMZ       0.146400
      4 C3          -0.5030    -1.2220     0.7740 c3         1 EMZ       0.125100
      5 CAM          4.0450     2.3190    -1.4840 c3         1 EMZ       0.129700
      6 O6           3.4650     1.1920    -0.8230 os         1 EMZ      -0.421600
      7 O5           2.0060     0.0000     1.3480 os         1 EMZ      -0.416600
      8 C1           1.6060    -1.1430     2.1070 c3         1 EMZ       0.339900
      9 O1           2.1540    -1.0550     3.4240 oh         1 EMZ      -0.575800
     10 C2           0.0780    -1.1890     2.1910 c3         1 EMZ       0.122100
     11 O2          -0.3250    -2.3630     2.9000 oh         1 EMZ      -0.602800
     12 O3          -1.9300    -1.1910     0.8420 oh         1 EMZ      -0.590800
     13 O4          -0.4790     1.1920     0.6250 oh         1 EMZ      -0.577800
     14 H1          -0.3600    -0.0480    -1.0210 h1         1 EMZ       0.040700
     15 H2           1.8890    -0.8870    -0.5070 h1         1 EMZ       0.048700
     16 H3           1.6090     1.2950    -1.7140 h1         1 EMZ       0.040200
     17 H4           1.7540     2.1310    -0.1620 h1         1 EMZ       0.040200
     18 H5          -0.1780    -2.1260     0.2720 h1         1 EMZ       0.045700
     19 H6           5.1210     2.1950    -1.5310 h1         1 EMZ       0.031033
     20 H7           3.8100     3.2210    -0.9330 h1         1 EMZ       0.031033
     21 H8           3.6460     2.3930    -2.4880 h1         1 EMZ       0.031033
     22 H9           1.9660    -2.0410     1.6200 h2         1 EMZ       0.027700
     23 H10          3.0130    -1.4440     3.4330 ho         1 EMZ       0.414000
     24 H11         -0.2810    -0.3070     2.7070 h1         1 EMZ       0.087700
     25 H12         -0.7740    -2.1130     3.6910 ho         1 EMZ       0.417000
     26 H13         -2.2850    -1.8860     0.3130 ho         1 EMZ       0.405000
     27 H14         -1.1350     1.5920     0.0780 ho         1 EMZ       0.405000
@<TRIPOS>BOND
     1     9     8 1
     2     7     8 1
     3     7     2 1
     4     6     5 1
     5     6     3 1
     6     8    10 1
     7    11    10 1
     8     3     2 1
     9    10     4 1
    10     2     1 1
    11    13     1 1
    12     1     4 1
    13     4    12 1
    14     1    14 1
    15     2    15 1
    16     3    16 1
    17     3    17 1
    18     4    18 1
    19     5    19 1
    20     5    20 1
    21     5    21 1
    22     8    22 1
    23     9    23 1
    24    10    24 1
    25    11    25 1
    26    12    26 1
    27    13    27 1
@<TRIPOS>SUBSTRUCTURE
     1 EMZ         1 TEMP              0 ****  ****    0 ROOT
