@<TRIPOS>MOLECULE
molecule
   50    51     1     0     0
SMALL
bcc


@<TRIPOS>ATOM
      1 C01          0.0000     0.0000     0.0000 c3         1 EN0      -0.120400
      2 C02          1.5070     0.0000     0.0000 ca         1 EN0       0.698300
      3 N03          2.1470     0.0000     1.1520 nb         1 EN0      -0.741000
      4 C04          3.4720    -0.0010     1.1960 ca         1 EN0       0.522200
      5 C05          4.1860    -0.0020     0.0150 ca         1 EN0      -0.391900
      6 C06          5.6930    -0.0020     0.0220 c3         1 EN0       0.070600
      7 N07          6.1800     1.2870     0.5180 na         1 EN0       0.026900
      8 C08          6.4330     1.4790     1.7830 cc         1 EN0       0.018800
      9 C09          6.2690     0.4770     2.8490 ce         1 EN0      -0.060100
     10 O10          5.9810    -0.8140     2.5310 oh         1 EN0      -0.489100
     11 C11          6.4030     0.8340     4.1300 c2         1 EN0       0.201900
     12 F12          6.5540     2.1380     4.4550 f          1 EN0      -0.158500
     13 P13          6.3840    -0.4280     5.4310 p5         1 EN0       0.956100
     14 O14          7.7080    -0.2850     6.3370 o          1 EN0      -0.856500
     15 O15          5.0800    -0.2290     6.3530 o          1 EN0      -0.856500
     16 O16          6.3510    -1.7730     4.8150 o          1 EN0      -0.856500
     17 S17          7.0030     3.1300     2.0110 ss         1 EN0       0.018200
     18 C18          6.8370     3.4220     0.2800 cc         1 EN0      -0.070400
     19 C19          7.1480     4.7120    -0.4320 c3         1 EN0      -0.016100
     20 C20          5.8950     5.5910    -0.4680 c3         1 EN0       0.236400
     21 O21          6.1910     6.8140    -1.1430 os         1 EN0      -0.604200
     22 P22          5.1000     7.9780    -1.3670 p5         1 EN0       1.432800
     23 O23          3.9320     7.4400    -2.3340 o          1 EN0      -0.857000
     24 O24          5.8110     9.2570    -2.0420 os         1 EN0      -0.716800
     25 P25          5.4340    10.8170    -2.1500 p5         1 EN0       1.318900
     26 O26          3.9800    10.9580    -2.3940 o          1 EN0      -0.870167
     27 O27          5.8210    11.5600    -0.7740 o          1 EN0      -0.870167
     28 O28          6.2500    11.4840    -3.3680 o          1 EN0      -0.870167
     29 O29          4.5210     8.3680    -0.0620 o          1 EN0      -0.857000
     30 C30          6.3860     2.3010    -0.2920 cd         1 EN0      -0.109600
     31 C31          6.1380     2.2030    -1.7740 c3         1 EN0      -0.024800
     32 C32          3.4770    -0.0010    -1.1880 ca         1 EN0       0.719200
     33 N33          4.1470    -0.0020    -2.4010 nv         1 EN0      -1.065500
     34 N34          2.1470    -0.0060    -1.1510 nb         1 EN0      -0.796000
     35 H1          -0.3610     0.9800    -0.2880 hc         1 EN0       0.051033
     36 H2          -0.3610    -0.7390    -0.7050 hc         1 EN0       0.051033
     37 H3          -0.3610    -0.2400     0.9930 hc         1 EN0       0.051033
     38 H4           3.9890    -0.0010     2.1490 h4         1 EN0       0.093100
     39 H5           6.0590    -0.1630    -0.9850 h1         1 EN0       0.084700
     40 H6           6.0510    -0.7960     0.6670 h1         1 EN0       0.084700
     41 H7           6.7640    -1.3350     2.5910 ho         1 EN0       0.434000
     42 H10          7.4680     4.4980    -1.4440 hc         1 EN0       0.054200
     43 H11          7.9390     5.2330     0.0940 hc         1 EN0       0.054200
     44 H12          5.5750     5.8050     0.5440 h1         1 EN0       0.028200
     45 H13          5.1040     5.0700    -0.9950 h1         1 EN0       0.028200
     46 H17          6.6930     2.9810    -2.2850 hc         1 EN0       0.052700
     47 H18          6.4630     1.2340    -2.1310 hc         1 EN0       0.052700
     48 H19          5.0800     2.3260    -1.9720 hc         1 EN0       0.052700
     49 H20          4.7470    -0.7660    -2.6400 hn         1 EN0       0.434300
     50 H21          3.9790     0.7280    -3.0650 hn         1 EN0       0.434300
@<TRIPOS>BOND
     1    16    13 1
     2    15    13 1
     3    26    25 1
     4    13    11 1
     5    13    14 1
     6    27    25 1
     7    25    28 1
     8    25    24 1
     9    12    11 1
    10    11     9 2
    11    17     8 1
    12    17    18 1
    13     9    10 1
    14     9     8 1
    15    24    22 1
    16     8     7 2
    17    18    19 1
    18    18    30 2
    19    19    20 1
    20    20    21 1
    21    22    29 1
    22    22    23 1
    23    22    21 1
    24     7    30 1
    25     7     6 1
    26    33    32 1
    27    30    31 1
    28     6     5 1
    29    32     5 ar
    30    32    34 ar
    31     5     4 ar
    32    34     2 ar
    33     4     3 ar
    34     2     3 ar
    35     2     1 1
    36     1    35 1
    37     1    36 1
    38     1    37 1
    39     4    38 1
    40     6    39 1
    41     6    40 1
    42    10    41 1
    43    19    42 1
    44    19    43 1
    45    20    44 1
    46    20    45 1
    47    31    46 1
    48    31    47 1
    49    31    48 1
    50    33    49 1
    51    33    50 1
@<TRIPOS>SUBSTRUCTURE
     1 EN0         1 TEMP              0 ****  ****    0 ROOT
