@<TRIPOS>MOLECULE
molecule
   20    20     1     0     0
SMALL
bcc


@<TRIPOS>ATOM
      1 C1           0.0000     0.0000     0.0000 c          1 EN1       0.811800
      2 O1           1.2160     0.0000     0.0000 o          1 EN1      -0.785300
      3 C2          -0.7320     0.0000     1.2700 ce         1 EN1       0.284900
      4 O2          -0.6750     0.0050    -1.1680 o          1 EN1      -0.785300
      5 C3          -0.0630    -0.1410     2.4370 cf         1 EN1      -0.644200
      6 O3           5.3350    -1.6330     2.4060 oh         1 EN1      -0.540100
      7 C4           1.3540    -0.5330     2.4290 ca         1 EN1       0.050200
      8 O4          -2.0850     0.1430     1.2760 oh         1 EN1      -0.493100
      9 C5           2.2680     0.1200     3.2640 ca         1 EN1      -0.120000
     10 C6           3.5940    -0.2510     3.2520 ca         1 EN1      -0.157500
     11 C7           4.0260    -1.2720     2.4130 ca         1 EN1       0.042100
     12 C8           3.1230    -1.9230     1.5820 ca         1 EN1      -0.157500
     13 C9           1.7930    -1.5640     1.5900 ca         1 EN1      -0.120000
     14 H3           0.7000     0.6210     2.3360 ha         1 EN1       0.303000
     15 HO3          5.7990    -1.1200     1.7650 ho         1 EN1       0.399000
     16 HO4         -2.4760    -0.5850     1.7300 ho         1 EN1       0.431000
     17 H5           1.9200     0.8630     3.9710 ha         1 EN1       0.125000
     18 H6           4.3020     0.2520     3.9000 ha         1 EN1       0.116500
     19 H8           3.4640    -2.7190     0.9310 ha         1 EN1       0.116500
     20 H9           1.2600    -2.4810     1.3700 ha         1 EN1       0.125000
@<TRIPOS>BOND
     1     1     2 1
     2     1     3 1
     3     1     4 1
     4     3     5 2
     5     3     8 1
     6     5     7 1
     7     5    14 1
     8     6    11 1
     9     6    15 1
    10     7     9 ar
    11     7    13 ar
    12     8    16 1
    13     9    10 ar
    14     9    17 1
    15    10    11 ar
    16    10    18 1
    17    11    12 ar
    18    12    13 ar
    19    12    19 1
    20    13    20 1
@<TRIPOS>SUBSTRUCTURE
     1 EN1         1 TEMP              0 ****  ****    0 ROOT
