@<TRIPOS>MOLECULE
EN1
   20    20     1     0     0
SMALL
bcc


@<TRIPOS>ATOM
      1 C1         -0.5520   -0.5040   -0.2450 c         1 EN1      0.893800
      2 O1          0.4240   -1.1680   -0.6740 o         1 EN1     -0.815800
      3 C2         -0.7510   -0.2300    1.2450 ce        1 EN1      0.063900
      4 O2         -1.4690   -0.0330   -0.9840 o         1 EN1     -0.815800
      5 C3          0.0760   -0.2360    2.3180 cf        1 EN1     -0.242200
      6 O3          5.5160   -1.4960    3.0300 oh        1 EN1     -0.522100
      7 C4          1.4760   -0.5790    2.4200 ca        1 EN1     -0.006800
      8 O4         -2.0450    0.1570    1.5440 oh        1 EN1     -0.559100
      9 C5          2.2400    0.0580    3.4160 ca        1 EN1     -0.104000
     10 C6          3.5830   -0.2480    3.6110 ca        1 EN1     -0.190500
     11 C7          4.1810   -1.2180    2.7950 ca        1 EN1      0.077100
     12 C8          3.4410   -1.8680    1.8000 ca        1 EN1     -0.190500
     13 C9          2.0980   -1.5500    1.6190 ca        1 EN1     -0.104000
     14 H3         -0.3660    0.0870    3.2810 ha        1 EN1      0.106000
     15 HO3         5.8000   -2.1220    2.3500 ho        1 EN1      0.404000
     16 HO4        -2.5260    0.2580    0.7000 ho        1 EN1      0.447000
     17 H5          1.7670    0.8210    4.0520 ha        1 EN1      0.158000
     18 H6          4.1750    0.2550    4.3850 ha        1 EN1      0.121500
     19 H8          3.9190   -2.6210    1.1590 ha        1 EN1      0.121500
     20 H9          1.5160   -2.0450    0.8190 ha        1 EN1      0.158000
@<TRIPOS>BOND
     1    1    2 1   
     2    1    3 1   
     3    1    4 1   
     4    3    5 2   
     5    3    8 1   
     6    5    7 1   
     7    5   14 1   
     8    6   11 1   
     9    6   15 1   
    10    7    9 ar  
    11    7   13 ar  
    12    8   16 1   
    13    9   10 ar  
    14    9   17 1   
    15   10   11 ar  
    16   10   18 1   
    17   11   12 ar  
    18   12   13 ar  
    19   12   19 1   
    20   13   20 1   
@<TRIPOS>SUBSTRUCTURE
     1 EN1         1 TEMP              0 ****  ****    0 ROOT
