@<TRIPOS>MOLECULE
EN2
   42    43     1     0     0
SMALL
bcc


@<TRIPOS>ATOM
      1 C01          0.0000     0.0000     0.0000 c3         1 EN2       0.043300
      2 C03          2.4290     0.0000     0.0000 cc         1 EN2      -0.060400
      3 C04          3.6480     0.0000     0.6450 cd         1 EN2      -0.285200
      4 C05          3.6880    -0.0060     2.0610 cd         1 EN2      -0.013000
      5 C06          2.5190    -0.0120     2.7540 cc         1 EN2      -0.240200
      6 C07          1.2980    -0.0120     2.0520 c          1 EN2       0.582700
      7 C09          4.9010     0.0060    -0.1330 c          1 EN2       0.619300
      8 C12          7.3340     0.0120    -0.2700 c3         1 EN2       0.058000
      9 C13          8.5290     0.0100     0.6850 c3         1 EN2      -0.057400
     10 C14          9.8280     0.0160    -0.1220 c3         1 EN2       0.058000
     11 C16         12.2270     0.0190     0.3030 c          1 EN2       0.598700
     12 C18         13.3800     0.0180     1.2250 ca         1 EN2      -0.170600
     13 C19         13.1730     0.0070     2.6060 ca         1 EN2      -0.033000
     14 C20         14.2530    -0.0010     3.4640 ca         1 EN2      -0.143000
     15 C21         15.5430     0.0040     2.9560 ca         1 EN2       0.127900
     16 C23         15.7550     0.0160     1.5860 ca         1 EN2      -0.143000
     17 C24         14.6820     0.0230     0.7200 ca         1 EN2      -0.033000
     18 F22         16.5980    -0.0020     3.8000 f          1 EN2      -0.125900
     19 N02          1.2840    -0.0000     0.7070 n          1 EN2       0.136000
     20 N11          6.0890     0.0060     0.5030 ns         1 EN2      -0.203900
     21 N15         10.9710     0.0150     0.7940 ns         1 EN2      -0.205900
     22 O08          0.2450    -0.0170     2.6690 o          1 EN2      -0.690500
     23 O10          4.8610     0.0100    -1.3480 o          1 EN2      -0.660100
     24 O17         12.4100     0.0250    -0.8990 o          1 EN2      -0.643100
     25 H1           0.1750     0.0800    -1.0660 h1         1 EN2       0.029367
     26 H2          -0.5290    -0.9220     0.2110 h1         1 EN2       0.029367
     27 H3          -0.5950     0.8420     0.3320 h1         1 EN2       0.029367
     28 H4           2.3930     0.0040    -1.0830 h4         1 EN2       0.153000
     29 H5           4.6370    -0.0060     2.5850 ha         1 EN2       0.101000
     30 H6           2.5260    -0.0190     3.8370 ha         1 EN2       0.138000
     31 H7           7.3700     0.8990    -0.8910 h1         1 EN2       0.031700
     32 H8           7.3730    -0.8700    -0.8980 h1         1 EN2       0.031700
     33 H9           8.4900     0.8910     1.3140 hc         1 EN2       0.018200
     34 H10          8.4930    -0.8780     1.3060 hc         1 EN2       0.018200
     35 H11          9.8630     0.9030    -0.7430 h1         1 EN2       0.032200
     36 H12          9.8680    -0.8660    -0.7490 h1         1 EN2       0.032200
     37 H13         12.1650     0.0020     3.0040 ha         1 EN2       0.117500
     38 H14         14.0930    -0.0100     4.5350 ha         1 EN2       0.122500
     39 H15         16.7650     0.0200     1.1950 ha         1 EN2       0.122500
     40 H16         14.8490     0.0320    -0.3500 ha         1 EN2       0.117500
     41 H17          6.1220     0.0020     1.5030 hn         1 EN2       0.178500
     42 H18         10.8210     0.0340     1.7830 hn         1 EN2       0.178500
@<TRIPOS>BOND
     1     1    19 1   
     2     1    25 1   
     3     1    26 1   
     4     1    27 1   
     5     2     3 2   
     6     2    19 1   
     7     2    28 1   
     8     3     4 1   
     9     3     7 1   
    10     4     5 2   
    11     4    29 1   
    12     5     6 1   
    13     5    30 1   
    14     6    19 1   
    15     6    22 2   
    16     7    20 1   
    17     7    23 2   
    18     8     9 1   
    19     8    20 1   
    20     8    31 1   
    21     8    32 1   
    22     9    10 1   
    23     9    33 1   
    24     9    34 1   
    25    10    21 1   
    26    10    35 1   
    27    10    36 1   
    28    11    12 1   
    29    11    21 1   
    30    11    24 2   
    31    12    13 ar  
    32    12    17 ar  
    33    13    14 ar  
    34    13    37 1   
    35    14    15 ar  
    36    14    38 1   
    37    15    16 ar  
    38    15    18 1   
    39    16    17 ar  
    40    16    39 1   
    41    17    40 1   
    42    20    41 1   
    43    21    42 1   
@<TRIPOS>SUBSTRUCTURE
     1 EN2         1 TEMP              0 ****  ****    0 ROOT
