@<TRIPOS>MOLECULE
EN4
   22    22     1     0     0
SMALL
bcc


@<TRIPOS>ATOM
      1 C02          0.0000     0.0000     0.0000 c          1 EN4       0.914600
      2 C03          1.4940     0.0000     0.0000 c          1 EN4       0.502100
      3 C06          3.6280     0.1250     1.1700 c3         1 EN4       0.024700
      4 C07          4.2580    -1.0310     0.3740 c3         1 EN4      -0.042900
      5 C08          5.0390    -0.3890    -0.7910 c3         1 EN4      -0.021900
      6 C09          5.3430     1.0470    -0.2990 c3         1 EN4      -0.021900
      7 C10          4.0490     1.4290     0.4630 c3         1 EN4      -0.042900
      8 N04          2.1680     0.0000     1.1670 n          1 EN4      -0.048300
      9 O01         -0.6720    -0.1230    -1.1590 o          1 EN4      -0.857300
     10 O05          1.4660    -0.1200     2.3900 oh         1 EN4      -0.406100
     11 O11          2.1010     0.0000    -1.0500 o          1 EN4      -0.657100
     12 O12         -0.6060     0.1060     1.0440 o          1 EN4      -0.857300
     13 H1           4.0030     0.1200     2.1870 h1         1 EN4       0.014700
     14 H2           4.9340    -1.5910     1.0090 hc         1 EN4       0.024450
     15 H3           3.4820    -1.6790    -0.0140 hc         1 EN4       0.024450
     16 H4           5.9610    -0.9290    -0.9710 hc         1 EN4       0.010450
     17 H5           4.4280    -0.3610    -1.6850 hc         1 EN4       0.010450
     18 H6           5.5030     1.7130    -1.1380 hc         1 EN4       0.010450
     19 H7           6.1950     1.0490     0.3700 hc         1 EN4       0.010450
     20 H8           4.2540     2.2050     1.1910 hc         1 EN4       0.024450
     21 H9           3.2810     1.7470    -0.2320 hc         1 EN4       0.024450
     22 H11          1.6640    -0.9520     2.7860 ho         1 EN4       0.359000
@<TRIPOS>BOND
     1     1     2 1   
     2     1     9 1   
     3     1    12 1   
     4     2     8 1   
     5     2    11 2   
     6     3     4 1   
     7     3     7 1   
     8     3     8 1   
     9     3    13 1   
    10     4     5 1   
    11     4    14 1   
    12     4    15 1   
    13     5     6 1   
    14     5    16 1   
    15     5    17 1   
    16     6     7 1   
    17     6    18 1   
    18     6    19 1   
    19     7    20 1   
    20     7    21 1   
    21     8    10 1   
    22    10    22 1   
@<TRIPOS>SUBSTRUCTURE
     1 EN4         1 TEMP              0 ****  ****    0 ROOT
