@<TRIPOS>MOLECULE
EN5
   91    91     1     0     0
SMALL
bcc


@<TRIPOS>ATOM
      1 C            0.0000     0.0000     0.0000 c3         1 EN5      -0.053200
      2 N            1.4700     0.0000     0.0000 nz         1 EN5       0.086400
      3 O           -7.8770     0.0010     8.1100 o          1 EN5      -0.657100
      4 C1          -0.5100     0.0000     1.4430 c3         1 EN5      -0.036400
      5 N1          -9.9900     0.0010     7.4340 ns         1 EN5      -0.174900
      6 C2          -2.0400     0.0000     1.4420 c3         1 EN5      -0.018400
      7 N2         -12.5130    -0.7030    10.0330 ns         1 EN5      -0.160900
      8 C3          -2.5510     0.0000     2.8840 c3         1 EN5      -0.025400
      9 N3         -12.2600    -6.8860     7.7900 nz         1 EN5       0.084400
     10 C4          -4.0810     0.0000     2.8830 c3         1 EN5      -0.026400
     11 C5          -4.5910     0.0000     4.3260 c3         1 EN5      -0.025400
     12 C6          -6.1210     0.0010     4.3250 c3         1 EN5      -0.030400
     13 C7          -6.6320     0.0010     5.7680 c3         1 EN5      -0.014400
     14 C8          -8.1620     0.0010     5.7670 c3         1 EN5      -0.093400
     15 C9          -8.6640     0.0000     7.1880 c          1 EN5       0.568100
     16 C10        -10.4790     0.0010     8.8150 c3         1 EN5      -0.055300
     17 C11        -10.5300     1.4380     9.3370 c3         1 EN5       0.207400
     18 C12        -11.8600    -0.5990     8.8580 c          1 EN5       0.582100
     19 C13        -13.8560    -1.2870    10.0760 c3         1 EN5      -0.040300
     20 C14        -13.7470    -2.8100    10.1680 c3         1 EN5      -0.126400
     21 C15        -13.1100    -3.3550     8.8880 c3         1 EN5      -0.071400
     22 C16        -13.0020    -4.8780     8.9810 c3         1 EN5      -0.004400
     23 C17        -12.3640    -5.4230     7.7020 c3         1 EN5      -0.053200
     24 C18        -14.5940    -0.7620    11.2800 c          1 EN5       0.560100
     25 C19        -16.5750    -0.6530    12.6950 c3         1 EN5       0.035000
     26 C20        -17.9770    -1.2620    12.7390 c3         1 EN5      -0.037400
     27 C21        -18.7270    -0.7290    13.9620 c3         1 EN5      -0.046700
     28 C22        -20.0810    -1.4310    14.0770 c3         1 EN5      -0.031900
     29 C23        -20.8300    -0.8970    15.2990 c3         1 EN5      -0.039900
     30 C24        -21.0480     0.6090    15.1470 c3         1 EN5      -0.010400
     31 C25        -19.6940     1.3110    15.0330 c3         1 EN5      -0.039900
     32 C26        -18.9440     0.7770    13.8090 c3         1 EN5      -0.031900
     33 H           -0.3610    -0.8840    -0.5110 hx         1 EN5       0.085700
     34 HA          -0.3610     0.8840    -0.5110 hx         1 EN5       0.085700
     35 HN           1.8030     0.8140     0.4770 hn         1 EN5       0.224467
     36 HNA          1.8030    -0.8200     0.4670 hn         1 EN5       0.224467
     37 H1          -0.1500    -0.8850     1.9530 hc         1 EN5       0.034700
     38 H1A         -0.1490     0.8840     1.9540 hc         1 EN5       0.034700
     39 HN1        -10.6400     0.0040     6.6730 hn         1 EN5       0.203500
     40 HO1        -11.4940     3.0790     8.8810 ho         1 EN5       0.409000
     41 H2          -2.4010     0.8850     0.9310 hc         1 EN5       0.027200
     42 H2A         -2.4010    -0.8840     0.9310 hc         1 EN5       0.027200
     43 HN2        -12.0680    -0.4090    10.8800 hn         1 EN5       0.211500
     44 H3          -2.1900     0.8850     3.3950 hc         1 EN5       0.021700
     45 H3A         -2.1900    -0.8840     3.3950 hc         1 EN5       0.021700
     46 HN3        -11.8400    -7.2420     6.9550 hn         1 EN5       0.223133
     47 HN3A       -11.6960    -7.1330     8.5790 hn         1 EN5       0.223133
     48 H4          -4.4420    -0.8840     2.3730 hc         1 EN5       0.018200
     49 H4A         -4.4420     0.8850     2.3730 hc         1 EN5       0.018200
     50 HN4        -16.3120    -1.7930    10.8930 hn         1 EN5       0.173500
     51 H5          -4.2300     0.8850     4.8370 hc         1 EN5       0.019700
     52 H5A         -4.2310    -0.8840     4.8370 hc         1 EN5       0.019700
     53 H6          -6.4820    -0.8840     3.8140 hc         1 EN5       0.013700
     54 H6A         -6.4820     0.8850     3.8140 hc         1 EN5       0.013700
     55 H7          -6.2710     0.8850     6.2790 hc         1 EN5       0.030700
     56 H7A         -6.2710    -0.8840     6.2790 hc         1 EN5       0.030700
     57 H8          -8.5230     0.8850     5.2560 hc         1 EN5       0.028700
     58 H8A         -8.5230    -0.8840     5.2560 hc         1 EN5       0.028700
     59 H10         -9.8110    -0.5860     9.4340 h1         1 EN5       0.066700
     60 H11         -9.5560     1.8980     9.2240 h1         1 EN5       0.009700
     61 H11A       -10.8060     1.4320    10.3850 h1         1 EN5       0.009700
     62 H13        -14.3960    -1.0180     9.1760 h1         1 EN5       0.071700
     63 H14        -12.7090    -2.6940    10.4530 hc         1 EN5       0.050200
     64 H14A       -14.3450    -3.4160    10.8390 hc         1 EN5       0.050200
     65 H15        -12.1150    -2.9390     8.7830 hc         1 EN5       0.065200
     66 H15A       -13.7950    -2.7870     8.2700 hc         1 EN5       0.065200
     67 H16        -12.3880    -5.1450     9.8330 hc         1 EN5       0.030200
     68 H16A       -13.9900    -5.3040     9.1010 hc         1 EN5       0.030200
     69 H17        -12.9770    -5.1560     6.8500 hx         1 EN5       0.087700
     70 H17A       -11.3750    -4.9980     7.5820 hx         1 EN5       0.087700
     71 H19        -16.0350    -0.9220    13.5950 h1         1 EN5       0.038200
     72 H19A       -16.6520     0.4260    12.6290 h1         1 EN5       0.038200
     73 H20        -18.5160    -0.9930    11.8390 hc         1 EN5       0.017200
     74 H20A       -17.9000    -2.3410    12.8040 hc         1 EN5       0.017200
     75 H21        -18.1470    -0.9190    14.8580 hc         1 EN5       0.035700
     76 H22        -20.6640    -1.2370    13.1840 hc         1 EN5       0.015200
     77 H22A       -19.9250    -2.4980    14.1870 hc         1 EN5       0.015200
     78 H23        -21.6470    -1.5040    15.6710 hc         1 EN5       0.025700
     79 H23A       -19.8790    -1.0110    15.8050 hc         1 EN5       0.025700
     80 H24        -21.6290     0.8000    14.2530 hc         1 EN5       0.017700
     81 H24A       -21.5760     0.9860    16.0140 hc         1 EN5       0.017700
     82 H25        -19.1110     1.1170    15.9250 hc         1 EN5       0.025700
     83 H25A       -19.8490     2.3780    14.9220 hc         1 EN5       0.025700
     84 H26        -17.9840     1.2730    13.7310 hc         1 EN5       0.015200
     85 H26A       -19.5290     0.9680    12.9170 hc         1 EN5       0.015200
     86 O1         -11.4980     2.1810     8.5930 oh         1 EN5      -0.596800
     87 O2         -12.3850    -0.9890     7.8360 o          1 EN5      -0.680100
     88 O3         -14.0520     0.0230    12.0280 o          1 EN5      -0.639100
     89 N4         -15.8560    -1.1630    11.5240 ns         1 EN5      -0.173900
     90 HN31         1.8030     0.0040    -0.9440 hn         1 EN5       0.224467
     91 H33        -13.1740    -7.2790     7.9020 hn         1 EN5       0.223133
@<TRIPOS>BOND
     1     1     2 1   
     2     1     4 1   
     3     1    33 1   
     4     1    34 1   
     5     2    35 1   
     6     2    36 1   
     7     2    90 1   
     8     3    15 2   
     9     4     6 1   
    10     4    37 1   
    11     4    38 1   
    12     5    15 1   
    13     5    16 1   
    14     5    39 1   
    15     6     8 1   
    16     6    41 1   
    17     6    42 1   
    18     7    18 1   
    19     7    19 1   
    20     7    43 1   
    21     8    10 1   
    22     8    44 1   
    23     8    45 1   
    24     9    23 1   
    25     9    46 1   
    26     9    47 1   
    27     9    91 1   
    28    10    11 1   
    29    10    48 1   
    30    10    49 1   
    31    11    12 1   
    32    11    51 1   
    33    11    52 1   
    34    12    13 1   
    35    12    53 1   
    36    12    54 1   
    37    13    14 1   
    38    13    55 1   
    39    13    56 1   
    40    14    15 1   
    41    14    57 1   
    42    14    58 1   
    43    16    17 1   
    44    16    18 1   
    45    16    59 1   
    46    17    60 1   
    47    17    61 1   
    48    17    86 1   
    49    18    87 2   
    50    19    20 1   
    51    19    24 1   
    52    19    62 1   
    53    20    21 1   
    54    20    63 1   
    55    20    64 1   
    56    21    22 1   
    57    21    65 1   
    58    21    66 1   
    59    22    23 1   
    60    22    67 1   
    61    22    68 1   
    62    23    69 1   
    63    23    70 1   
    64    24    88 2   
    65    24    89 1   
    66    25    26 1   
    67    25    71 1   
    68    25    72 1   
    69    25    89 1   
    70    26    27 1   
    71    26    73 1   
    72    26    74 1   
    73    27    28 1   
    74    27    32 1   
    75    27    75 1   
    76    28    29 1   
    77    28    76 1   
    78    28    77 1   
    79    29    30 1   
    80    29    78 1   
    81    29    79 1   
    82    30    31 1   
    83    30    80 1   
    84    30    81 1   
    85    31    32 1   
    86    31    82 1   
    87    31    83 1   
    88    32    84 1   
    89    32    85 1   
    90    40    86 1   
    91    50    89 1   
@<TRIPOS>SUBSTRUCTURE
     1 EN5         1 TEMP              0 ****  ****    0 ROOT
