@<TRIPOS>MOLECULE
molecule
   91    91     1     0     0
SMALL
bcc


@<TRIPOS>ATOM
      1 C            0.0000     0.0000     0.0000 c3         1 EN5       0.090800
      2 N            1.4700     0.0000     0.0000 nz         1 EN5      -0.811600
      3 O           -7.8770     0.0010     8.1100 o          1 EN5      -0.616100
      4 C1          -0.5100     0.0000     1.4430 c3         1 EN5      -0.112400
      5 N1          -9.9900     0.0010     7.4340 ns         1 EN5      -0.569900
      6 C2          -2.0400     0.0000     1.4420 c3         1 EN5      -0.076400
      7 N2         -12.5130    -0.7030    10.0330 ns         1 EN5      -0.565900
      8 C3          -2.5510     0.0000     2.8840 c3         1 EN5      -0.080400
      9 N3         -12.2600    -6.8860     7.7900 nz         1 EN5      -0.812600
     10 C4          -4.0810     0.0000     2.8830 c3         1 EN5      -0.080400
     11 C5          -4.5910     0.0000     4.3260 c3         1 EN5      -0.079400
     12 C6          -6.1210     0.0010     4.3250 c3         1 EN5      -0.084400
     13 C7          -6.6320     0.0010     5.7680 c3         1 EN5      -0.066400
     14 C8          -8.1620     0.0010     5.7670 c3         1 EN5      -0.154400
     15 C9          -8.6640     0.0000     7.1880 c          1 EN5       0.657100
     16 C10        -10.4790     0.0010     8.8150 c3         1 EN5       0.051700
     17 C11        -10.5300     1.4380     9.3370 c3         1 EN5       0.127400
     18 C12        -11.8600    -0.5990     8.8580 c          1 EN5       0.667100
     19 C13        -13.8560    -1.2870    10.0760 c3         1 EN5       0.051700
     20 C14        -13.7470    -2.8100    10.1680 c3         1 EN5      -0.170400
     21 C15        -13.1100    -3.3550     8.8880 c3         1 EN5      -0.102400
     22 C16        -13.0020    -4.8780     8.9810 c3         1 EN5      -0.088400
     23 C17        -12.3640    -5.4230     7.7020 c3         1 EN5       0.092800
     24 C18        -14.5940    -0.7620    11.2800 c          1 EN5       0.652100
     25 C19        -16.5750    -0.6530    12.6950 c3         1 EN5       0.106000
     26 C20        -17.9770    -1.2620    12.7390 c3         1 EN5      -0.096400
     27 C21        -18.7270    -0.7290    13.9620 c3         1 EN5      -0.068700
     28 C22        -20.0810    -1.4310    14.0770 c3         1 EN5      -0.081900
     29 C23        -20.8300    -0.8970    15.2990 c3         1 EN5      -0.089900
     30 C24        -21.0480     0.6090    15.1470 c3         1 EN5      -0.069400
     31 C25        -19.6940     1.3110    15.0330 c3         1 EN5      -0.089900
     32 C26        -18.9440     0.7770    13.8090 c3         1 EN5      -0.081900
     33 H           -0.3610    -0.8840    -0.5110 hx         1 EN5       0.112700
     34 HA          -0.3610     0.8840    -0.5110 hx         1 EN5       0.112700
     35 HN           1.8030     0.8140     0.4770 hn         1 EN5       0.458133
     36 HNA          1.8030    -0.8200     0.4670 hn         1 EN5       0.458133
     37 H1          -0.1500    -0.8850     1.9530 hc         1 EN5       0.066200
     38 H1A         -0.1490     0.8840     1.9540 hc         1 EN5       0.066200
     39 HN1        -10.6400     0.0040     6.6730 hn         1 EN5       0.342500
     40 HO1        -11.4940     3.0790     8.8810 ho         1 EN5       0.420000
     41 H2          -2.4010     0.8850     0.9310 hc         1 EN5       0.057700
     42 H2A         -2.4010    -0.8840     0.9310 hc         1 EN5       0.057700
     43 HN2        -12.0680    -0.4090    10.8800 hn         1 EN5       0.348500
     44 H3          -2.1900     0.8850     3.3950 hc         1 EN5       0.050700
     45 H3A         -2.1900    -0.8840     3.3950 hc         1 EN5       0.050700
     46 HN3        -11.8400    -7.2420     6.9550 hn         1 EN5       0.456467
     47 HN3A       -11.6960    -7.1330     8.5790 hn         1 EN5       0.456467
     48 H4          -4.4420    -0.8840     2.3730 hc         1 EN5       0.047200
     49 H4A         -4.4420     0.8850     2.3730 hc         1 EN5       0.047200
     50 HN4        -16.3120    -1.7930    10.8930 hn         1 EN5       0.312500
     51 H5          -4.2300     0.8850     4.8370 hc         1 EN5       0.048200
     52 H5A         -4.2310    -0.8840     4.8370 hc         1 EN5       0.048200
     53 H6          -6.4820    -0.8840     3.8140 hc         1 EN5       0.042200
     54 H6A         -6.4820     0.8850     3.8140 hc         1 EN5       0.042200
     55 H7          -6.2710     0.8850     6.2790 hc         1 EN5       0.060200
     56 H7A         -6.2710    -0.8840     6.2790 hc         1 EN5       0.060200
     57 H8          -8.5230     0.8850     5.2560 hc         1 EN5       0.063200
     58 H8A         -8.5230    -0.8840     5.2560 hc         1 EN5       0.063200
     59 H10         -9.8110    -0.5860     9.4340 h1         1 EN5       0.096700
     60 H11         -9.5560     1.8980     9.2240 h1         1 EN5       0.045700
     61 H11A       -10.8060     1.4320    10.3850 h1         1 EN5       0.045700
     62 H13        -14.3960    -1.0180     9.1760 h1         1 EN5       0.099700
     63 H14        -12.7090    -2.6940    10.4530 hc         1 EN5       0.078200
     64 H14A       -14.3450    -3.4160    10.8390 hc         1 EN5       0.078200
     65 H15        -12.1150    -2.9390     8.7830 hc         1 EN5       0.086700
     66 H15A       -13.7950    -2.7870     8.2700 hc         1 EN5       0.086700
     67 H16        -12.3880    -5.1450     9.8330 hc         1 EN5       0.063700
     68 H16A       -13.9900    -5.3040     9.1010 hc         1 EN5       0.063700
     69 H17        -12.9770    -5.1560     6.8500 hx         1 EN5       0.114700
     70 H17A       -11.3750    -4.9980     7.5820 hx         1 EN5       0.114700
     71 H19        -16.0350    -0.9220    13.5950 h1         1 EN5       0.063200
     72 H19A       -16.6520     0.4260    12.6290 h1         1 EN5       0.063200
     73 H20        -18.5160    -0.9930    11.8390 hc         1 EN5       0.044700
     74 H20A       -17.9000    -2.3410    12.8040 hc         1 EN5       0.044700
     75 H21        -18.1470    -0.9190    14.8580 hc         1 EN5       0.055700
     76 H22        -20.6640    -1.2370    13.1840 hc         1 EN5       0.040450
     77 H22A       -19.9250    -2.4980    14.1870 hc         1 EN5       0.040450
     78 H23        -21.6470    -1.5040    15.6710 hc         1 EN5       0.051700
     79 H23A       -19.8790    -1.0110    15.8050 hc         1 EN5       0.051700
     80 H24        -21.6290     0.8000    14.2530 hc         1 EN5       0.047200
     81 H24A       -21.5760     0.9860    16.0140 hc         1 EN5       0.047200
     82 H25        -19.1110     1.1170    15.9250 hc         1 EN5       0.051700
     83 H25A       -19.8490     2.3780    14.9220 hc         1 EN5       0.051700
     84 H26        -17.9840     1.2730    13.7310 hc         1 EN5       0.040450
     85 H26A       -19.5290     0.9680    12.9170 hc         1 EN5       0.040450
     86 O1         -11.4980     2.1810     8.5930 oh         1 EN5      -0.609800
     87 O2         -12.3850    -0.9890     7.8360 o          1 EN5      -0.635100
     88 O3         -14.0520     0.0230    12.0280 o          1 EN5      -0.596100
     89 N4         -15.8560    -1.1630    11.5240 ns         1 EN5      -0.576900
     90 HN31         1.8030     0.0040    -0.9440 hn         1 EN5       0.458133
     91 H33        -13.1740    -7.2790     7.9020 hn         1 EN5       0.456467
@<TRIPOS>BOND
     1     2     1 1
     2     1     4 1
     3     1    33 1
     4     1    34 1
     5     2    35 1
     6     2    36 1
     7     3    15 2
     8     6     4 1
     9     4    37 1
    10     4    38 1
    11    15     5 1
    12    16     5 1
    13     5    39 1
    14    86    17 1
    15    86    40 1
    16     6     8 1
    17     6    41 1
    18     6    42 1
    19    18     7 1
    20     7    19 1
    21     7    43 1
    22    18    87 2
    23     8    10 1
    24     8    44 1
    25     8    45 1
    26     9    23 1
    27     9    46 1
    28     9    47 1
    29    88    24 2
    30    10    11 1
    31    10    48 1
    32    10    49 1
    33    24    89 1
    34    25    89 1
    35    89    50 1
    36    11    12 1
    37    11    51 1
    38    11    52 1
    39    12    13 1
    40    12    53 1
    41    12    54 1
    42    13    14 1
    43    13    55 1
    44    13    56 1
    45    15    14 1
    46    14    57 1
    47    14    58 1
    48    17    16 1
    49    16    18 1
    50    16    59 1
    51    17    60 1
    52    17    61 1
    53    24    19 1
    54    19    20 1
    55    19    62 1
    56    21    20 1
    57    20    63 1
    58    20    64 1
    59    21    22 1
    60    21    65 1
    61    21    66 1
    62    23    22 1
    63    22    67 1
    64    22    68 1
    65    23    69 1
    66    23    70 1
    67    25    26 1
    68    25    71 1
    69    25    72 1
    70    27    26 1
    71    26    73 1
    72    26    74 1
    73    32    27 1
    74    27    28 1
    75    27    75 1
    76    29    28 1
    77    28    76 1
    78    28    77 1
    79    30    29 1
    80    29    78 1
    81    29    79 1
    82    31    30 1
    83    30    80 1
    84    30    81 1
    85    31    32 1
    86    31    82 1
    87    31    83 1
    88    32    84 1
    89    32    85 1
    90    90     2 1
    91    91     9 1
@<TRIPOS>SUBSTRUCTURE
     1 EN5         1 TEMP              0 ****  ****    0 ROOT
