@<TRIPOS>MOLECULE
EN8
   34    35     1     0     0
SMALL
bcc


@<TRIPOS>ATOM
      1 N1           0.0000     0.0000     0.0000 nv         1 EN8      -0.453200
      2 C4           7.0610     0.0240     1.4430 c3         1 EN8      -0.030100
      3 C5           5.6820    -2.5570     1.3470 c3         1 EN8       0.244700
      4 C6           3.6810     0.0000     0.0000 ca         1 EN8       0.135100
      5 C7           2.3710     0.0000     0.4530 ca         1 EN8      -0.195000
      6 C8           1.3220     0.0000    -0.4560 ca         1 EN8       0.056600
      7 C10          2.8930     0.0010    -2.2710 ca         1 EN8      -0.053000
      8 C1           7.6170    -0.0240    -1.4560 c3         1 EN8      -0.030100
      9 C2           6.2460     0.3680    -0.9000 c3         1 EN8       0.340600
     10 C3           5.9920    -0.3690     0.4200 c3         1 EN8       0.342600
     11 O1           6.0330    -1.7800     0.2000 os         1 EN8      -0.413600
     12 O2           4.6990     0.0060     0.9040 os         1 EN8      -0.309900
     13 C9           1.5860     0.0020    -1.8200 ca         1 EN8      -0.190000
     14 C11          3.9430    -0.0010    -1.3650 ca         1 EN8       0.023100
     15 O3           5.2230    -0.0090    -1.8290 os         1 EN8      -0.305900
     16 O4           6.2010     1.7790    -0.6790 os         1 EN8      -0.416600
     17 C12          6.3000     2.5580    -1.8740 c3         1 EN8       0.245700
     18 H13         -0.1940     0.1420     0.9720 hn         1 EN8       0.264800
     19 H14         -0.7510    -0.1550    -0.6430 hn         1 EN8       0.264800
     20 H4           7.3380     1.0600     1.2960 hc         1 EN8       0.027367
     21 H5           7.9330    -0.6060     1.3130 hc         1 EN8       0.027367
     22 H6           6.6670    -0.1060     2.4440 hc         1 EN8       0.027367
     23 H8           6.5770    -2.9910     1.7770 h1         1 EN8      -0.003633
     24 H7           5.2000    -1.9220     2.0810 h1         1 EN8      -0.003633
     25 H9           5.0030    -3.3490     1.0540 h1         1 EN8      -0.003633
     26 H10          2.1660     0.0520     1.5150 ha         1 EN8       0.119000
     27 H12          3.0970     0.0020    -3.3350 ha         1 EN8       0.109000
     28 H2           7.6220     0.1080    -2.5310 hc         1 EN8       0.026700
     29 H3           8.3800     0.6050    -1.0120 hc         1 EN8       0.026700
     30 H1           7.8200    -1.0610    -1.2180 hc         1 EN8       0.026700
     31 H11          0.7690     0.0100    -2.5300 ha         1 EN8       0.110000
     32 H17          7.2930     2.9870    -1.9440 h1         1 EN8      -0.003967
     33 H16          6.1190     1.9250    -2.7340 h1         1 EN8      -0.003967
     34 H15          5.5640     3.3530    -1.8490 h1         1 EN8      -0.003967
@<TRIPOS>BOND
     1     1     6 1   
     2     1    18 1   
     3     1    19 1   
     4     2    10 1   
     5     2    20 1   
     6     2    21 1   
     7     2    22 1   
     8     3    11 1   
     9     3    23 1   
    10     3    24 1   
    11     3    25 1   
    12     4     5 ar  
    13     4    12 1   
    14     4    14 ar  
    15     5     6 ar  
    16     5    26 1   
    17     6    13 ar  
    18     7    13 ar  
    19     7    14 ar  
    20     7    27 1   
    21     8     9 1   
    22     8    28 1   
    23     8    29 1   
    24     8    30 1   
    25     9    10 1   
    26     9    15 1   
    27     9    16 1   
    28    10    11 1   
    29    10    12 1   
    30    13    31 1   
    31    14    15 1   
    32    16    17 1   
    33    17    32 1   
    34    17    33 1   
    35    17    34 1   
@<TRIPOS>SUBSTRUCTURE
     1 EN8         1 TEMP              0 ****  ****    0 ROOT
