@<TRIPOS>MOLECULE
molecule
   82    83     1     0     0
SMALL
bcc


@<TRIPOS>ATOM
      1 C1           1.5070     0.0000     0.0000 c3         1 ENB       0.134900
      2 C2           0.0000     0.0000     0.0000 c2         1 ENB      -0.114200
      3 N1           1.9960     0.0000     1.3800 ns         1 ENB      -0.572900
      4 C3           3.2040     0.5260     1.6680 c          1 ENB       0.656100
      5 C4           3.6650     0.6130     3.0990 c3         1 ENB       0.095000
      6 O1           3.9170     0.9280     0.7750 o          1 ENB      -0.594100
      7 N2           4.9990     1.2170     3.1460 ns         1 ENB      -0.562900
      8 C5           2.7010     1.4630     3.8880 ca         1 ENB      -0.108300
      9 C6           2.7800     2.8410     3.8190 ca         1 ENB      -0.110000
     10 C7           1.8930     3.6200     4.5380 ca         1 ENB      -0.124500
     11 C8           0.9330     3.0210     5.3330 ca         1 ENB      -0.119000
     12 C9           0.8580     1.6430     5.4050 ca         1 ENB      -0.124500
     13 C10          1.7420     0.8630     4.6820 ca         1 ENB      -0.110000
     14 C11          5.8200     0.9590     4.1830 c          1 ENB       0.658100
     15 C12          7.1930     1.5800     4.2310 c3         1 ENB       0.070700
     16 O2           5.4550     0.2260     5.0780 o          1 ENB      -0.613100
     17 N3           7.8830     1.1470     5.4480 ns         1 ENB      -0.555900
     18 C13          8.8610     1.9090     5.9760 c          1 ENB       0.763100
     19 O3           9.4960     1.5110     7.0950 os         1 ENB      -0.444900
     20 O4           9.1710     2.9550     5.4410 o          1 ENB      -0.628000
     21 C14         10.5500     2.3310     7.6630 c3         1 ENB       0.185800
     22 C15          2.0170    -1.2500    -0.7220 c3         1 ENB      -0.075400
     23 C16          1.6210    -1.1820    -2.1990 c3         1 ENB      -0.162700
     24 C17          1.9780    -2.5050    -2.9150 c3         1 ENB      -0.092400
     25 C18          2.4240    -2.0010    -4.3050 c3         1 ENB       0.094000
     26 N4           2.8850    -0.6220    -4.0920 ns         1 ENB      -0.589900
     27 C19          2.4410    -0.1340    -2.9190 c          1 ENB       0.704500
     28 O5           2.6680     0.9820    -2.5010 o          1 ENB      -0.624500
     29 C20          7.9950     1.1390     3.0060 c3         1 ENB      -0.089700
     30 C21          9.3880     1.7700     3.0540 c3         1 ENB      -0.090600
     31 C22          8.1250    -0.3850     3.0030 c3         1 ENB      -0.090600
     32 C23          9.9850     3.7060     8.0270 c3         1 ENB      -0.106433
     33 C24         11.1010     1.6560     8.9200 c3         1 ENB      -0.106433
     34 C25         11.6750     2.4970     6.6390 c3         1 ENB      -0.106433
     35 C26         -0.6650     0.9980    -0.5760 ce         1 ENB      -0.194200
     36 C27         -2.1350     0.9980    -0.5750 c          1 ENB       0.640300
     37 O6          -2.8090     2.0090    -1.1580 os         1 ENB      -0.434900
     38 O7          -2.7430     0.0860    -0.0480 o          1 ENB      -0.562000
     39 C28         -4.2620     2.0090    -1.1580 c3         1 ENB       0.154400
     40 C29         -4.7720     3.2590    -1.8790 c3         1 ENB      -0.096100
     41 H1           1.8680     0.8840    -0.5110 h1         1 ENB       0.124700
     42 H2          -0.5420    -0.8120     0.4700 ha         1 ENB       0.149000
     43 HN1          1.4510    -0.4250     2.1040 hn         1 ENB       0.318500
     44 H4           3.7040    -0.3810     3.5270 h1         1 ENB       0.097700
     45 HN2          5.2890     1.8450     2.4230 hn         1 ENB       0.340500
     46 H6           3.5320     3.3100     3.1970 ha         1 ENB       0.131500
     47 H7           1.9530     4.7000     4.4830 ha         1 ENB       0.133000
     48 H8           0.2390     3.6320     5.8980 ha         1 ENB       0.132000
     49 H9           0.1060     1.1740     6.0280 ha         1 ENB       0.133000
     50 H10          1.6830    -0.2170     4.7390 ha         1 ENB       0.131500
     51 H12          7.1010     2.6600     4.2330 h1         1 ENB       0.095700
     52 HN3          7.6010     0.3040     5.9080 hn         1 ENB       0.344500
     53 H151         1.5780    -2.1320    -0.2710 hc         1 ENB       0.059700
     54 H152         3.0960    -1.3000    -0.6390 hc         1 ENB       0.059700
     55 H16          0.5640    -0.9710    -2.3040 hc         1 ENB       0.084700
     56 H171         2.7930    -3.0090    -2.4090 hc         1 ENB       0.061200
     57 H172         1.1080    -3.1450    -2.9980 hc         1 ENB       0.061200
     58 H181         1.5870    -2.0130    -4.9930 h1         1 ENB       0.046700
     59 H182         3.2360    -2.6120    -4.6820 h1         1 ENB       0.046700
     60 HN4          3.4550    -0.1120    -4.7370 hn         1 ENB       0.339500
     61 H20          7.4840     1.4590     2.1060 hc         1 ENB       0.057700
     62 H211         9.8600     1.6780     2.0830 hc         1 ENB       0.042367
     63 H212         9.9890     1.2620     3.7980 hc         1 ENB       0.042367
     64 H213         9.3000     2.8180     3.3140 hc         1 ENB       0.042367
     65 H221         7.1380    -0.8320     2.9830 hc         1 ENB       0.042367
     66 H222         8.6480    -0.7050     3.8950 hc         1 ENB       0.042367
     67 H223         8.6800    -0.6980     2.1270 hc         1 ENB       0.042367
     68 H231         9.9720     4.3360     7.1460 hc         1 ENB       0.049589
     69 H232        10.6070     4.1620     8.7880 hc         1 ENB       0.049589
     70 H233         8.9760     3.5930     8.4060 hc         1 ENB       0.049589
     71 H241        11.4950     0.6800     8.6630 hc         1 ENB       0.049589
     72 H242        11.8910     2.2650     9.3410 hc         1 ENB       0.049589
     73 H243        10.3050     1.5440     9.6470 hc         1 ENB       0.049589
     74 H251        11.8200     1.5640     6.1070 hc         1 ENB       0.049589
     75 H252        12.5920     2.7660     7.1500 hc         1 ENB       0.049589
     76 H253        11.4110     3.2770     5.9350 hc         1 ENB       0.049589
     77 H26         -0.1240     1.8110    -1.0450 ha         1 ENB       0.160000
     78 H281        -4.6240     1.1250    -1.6680 h1         1 ENB       0.046700
     79 H282        -4.6230     2.0090    -0.1360 h1         1 ENB       0.046700
     80 H291        -5.8540     3.2770    -1.8470 hc         1 ENB       0.048367
     81 H292        -4.3810     4.1420    -1.3890 hc         1 ENB       0.048367
     82 H293        -4.4400     3.2410    -2.9100 hc         1 ENB       0.048367
@<TRIPOS>BOND
     1     1     2 1
     2     1     3 1
     3     1    22 1
     4     1    41 1
     5     2    35 2
     6     2    42 1
     7     3     4 1
     8     3    43 1
     9     4     5 1
    10     4     6 2
    11     5     7 1
    12     5     8 1
    13     5    44 1
    14     7    14 1
    15     7    45 1
    16     8     9 ar
    17     8    13 ar
    18     9    10 ar
    19     9    46 1
    20    10    11 ar
    21    10    47 1
    22    11    12 ar
    23    11    48 1
    24    12    13 ar
    25    12    49 1
    26    13    50 1
    27    14    15 1
    28    14    16 2
    29    15    17 1
    30    15    29 1
    31    15    51 1
    32    17    18 1
    33    17    52 1
    34    18    19 1
    35    18    20 2
    36    19    21 1
    37    21    32 1
    38    21    33 1
    39    21    34 1
    40    22    23 1
    41    22    53 1
    42    22    54 1
    43    23    24 1
    44    23    27 1
    45    23    55 1
    46    24    25 1
    47    24    56 1
    48    24    57 1
    49    25    26 1
    50    25    58 1
    51    25    59 1
    52    26    27 1
    53    26    60 1
    54    27    28 2
    55    29    30 1
    56    29    31 1
    57    29    61 1
    58    30    62 1
    59    30    63 1
    60    30    64 1
    61    31    65 1
    62    31    66 1
    63    31    67 1
    64    32    68 1
    65    32    69 1
    66    32    70 1
    67    33    71 1
    68    33    72 1
    69    33    73 1
    70    34    74 1
    71    34    75 1
    72    34    76 1
    73    35    36 1
    74    35    77 1
    75    36    37 1
    76    36    38 2
    77    37    39 1
    78    39    40 1
    79    39    78 1
    80    39    79 1
    81    40    80 1
    82    40    81 1
    83    40    82 1
@<TRIPOS>SUBSTRUCTURE
     1 ENB         1 TEMP              0 ****  ****    0 ROOT
