@<TRIPOS>MOLECULE
ENB
   82    85     1     0     0
SMALL
bcc


@<TRIPOS>ATOM
      1 C1           1.5070     0.0000     0.0000 DU         1 ENB      -0.017000
      2 C2           0.0000     0.0000     0.0000 c2         1 ENB      -0.141000
      3 N1           1.9960     0.0000     1.3800 ns         1 ENB      -0.033000
      4 C3           3.2040     0.5260     1.6680 c2         1 ENB       0.221000
      5 C4           3.6650     0.6130     3.0990 c3         1 ENB      -0.025000
      6 O1           3.9170     0.9280     0.7750 o          1 ENB      -0.386000
      7 N2           4.9990     1.2170     3.1460 ns         1 ENB       0.026000
      8 C5           2.7010     1.4630     3.8880 ca         1 ENB      -0.119000
      9 C6           2.7800     2.8410     3.8190 ca         1 ENB      -0.084500
     10 C7           1.8930     3.6200     4.5380 ca         1 ENB      -0.094000
     11 C8           0.9330     3.0210     5.3330 ca         1 ENB      -0.090000
     12 C9           0.8580     1.6430     5.4050 ca         1 ENB      -0.094000
     13 C10          1.7420     0.8630     4.6820 ca         1 ENB      -0.084500
     14 C11          5.8200     0.9590     4.1830 c2         1 ENB       0.215000
     15 C12          7.1930     1.5800     4.2310 c3         1 ENB      -0.065000
     16 O2           5.4550     0.2260     5.0780 o          1 ENB      -0.417000
     17 N3           7.8830     1.1470     5.4480 ns         1 ENB       0.041000
     18 C13          8.8610     1.9090     5.9760 c2         1 ENB       0.344000
     19 O3           9.4960     1.5110     7.0950 os         1 ENB      -0.262000
     20 O4           9.1710     2.9550     5.4410 o          1 ENB      -0.487000
     21 C14         10.5500     2.3310     7.6630 c3         1 ENB       0.129000
     22 C15          2.0170    -1.2500    -0.7220 c3         1 ENB      -0.114000
     23 C16          1.6210    -1.1820    -2.1990 c3         1 ENB      -0.123000
     24 C17          1.9780    -2.5050    -2.9150 c3         1 ENB      -0.108000
     25 C18          2.4240    -2.0010    -4.3050 c3         1 ENB      -0.075000
     26 N4           2.8850    -0.6220    -4.0920 ns         1 ENB      -0.010000
     27 C19          2.4410    -0.1340    -2.9190 c2         1 ENB       0.230000
     28 O5           2.6680     0.9820    -2.5010 o          1 ENB      -0.387000
     29 C20          7.9950     1.1390     3.0060 c3         1 ENB      -0.105000
     30 C21          9.3880     1.7700     3.0540 c3         1 ENB      -0.129500
     31 C22          8.1250    -0.3850     3.0030 c3         1 ENB      -0.129500
     32 C23          9.9850     3.7060     8.0270 c3         1 ENB      -0.146000
     33 C24         11.1010     1.6560     8.9200 c3         1 ENB      -0.146000
     34 C25         11.6750     2.4970     6.6390 c3         1 ENB      -0.146000
     35 C26         -0.6650     0.9980    -0.5760 c2         1 ENB      -0.049000
     36 C27         -2.1350     0.9980    -0.5750 c3         1 ENB       0.436000
     37 O6          -2.8090     2.0090    -1.1580 os         1 ENB      -0.271000
     38 O7          -2.7430     0.0860    -0.0480 o          1 ENB      -0.441000
     39 C28         -4.2620     2.0090    -1.1580 c3         1 ENB       0.090000
     40 C29         -4.7720     3.2590    -1.8790 c3         1 ENB      -0.121000
     41 H1           1.8680     0.8840    -0.5110 ha         1 ENB       0.171000
     42 H2           0.6120     0.5980     0.6640 DU         1 ENB       0.110000
     43 HN1          1.4540    -0.4310     2.1030 hn         1 ENB       0.108000
     44 H4           3.7040    -0.3810     3.5270 h1         1 ENB       0.110000
     45 HN2          5.2900     1.8430     2.4220 hn         1 ENB       0.117000
     46 H6           3.5320     3.3100     3.1970 ha         1 ENB       0.107500
     47 H7           1.9530     4.7000     4.4830 ha         1 ENB       0.106000
     48 H8           0.2390     3.6320     5.8980 ha         1 ENB       0.105000
     49 H9           0.1060     1.1740     6.0280 ha         1 ENB       0.106000
     50 H10          1.6830    -0.2170     4.7390 ha         1 ENB       0.107500
     51 H12          7.1010     2.6600     4.2330 h1         1 ENB       0.108000
     52 HN3          7.5990     0.3060     5.9100 hn         1 ENB       0.114000
     53 H151         1.5780    -2.1320    -0.2710 hc         1 ENB       0.069500
     54 H152         3.0960    -1.3000    -0.6390 hc         1 ENB       0.069500
     55 H16          0.5640    -0.9710    -2.3040 hc         1 ENB       0.098000
     56 H171         1.1080    -3.1450    -2.9980 hc         1 ENB       0.069500
     57 H172         2.7930    -3.0090    -2.4090 hc         1 ENB       0.069500
     58 H181         1.5870    -2.0130    -4.9930 h1         1 ENB       0.055500
     59 H182         3.2360    -2.6120    -4.6820 h1         1 ENB       0.055500
     60 HN4          3.4550    -0.1120    -4.7370 hn         1 ENB       0.109000
     61 H20          7.4840     1.4590     2.1060 hc         1 ENB       0.073000
     62 H211         9.8630     1.6700     2.0850 hc         1 ENB       0.053167
     63 H212         9.3000     2.8200     3.3060 hc         1 ENB       0.053167
     64 H213         9.9860     1.2680     3.8040 hc         1 ENB       0.053167
     65 H221         8.6400    -0.7020     2.1040 hc         1 ENB       0.053167
     66 H222         7.1380    -0.8320     3.0290 hc         1 ENB       0.053167
     67 H223         8.6880    -0.7010     3.8720 hc         1 ENB       0.053167
     68 H231         8.9800     3.5920     8.4160 hc         1 ENB       0.057556
     69 H232        10.6140     4.1670     8.7800 hc         1 ENB       0.057556
     70 H233         9.9610     4.3330     7.1440 hc         1 ENB       0.057556
     71 H241        11.5000     0.6820     8.6620 hc         1 ENB       0.057556
     72 H242        10.3040     1.5390     9.6450 hc         1 ENB       0.057556
     73 H243        11.8870     2.2680     9.3440 hc         1 ENB       0.057556
     74 H251        11.4070     3.2690     5.9290 hc         1 ENB       0.057556
     75 H252        12.5890     2.7770     7.1490 hc         1 ENB       0.057556
     76 H253        11.8270     1.5610     6.1150 hc         1 ENB       0.057556
     77 H26         -1.2780     0.4010    -1.2410 DU         1 ENB       0.047000
     78 H281        -4.6230     2.0090    -0.1360 h1         1 ENB       0.045500
     79 H282        -4.6240     1.1250    -1.6680 h1         1 ENB       0.045500
     80 H291        -4.4020     4.1430    -1.3730 hc         1 ENB       0.050667
     81 H292        -5.8550     3.2640    -1.8700 hc         1 ENB       0.050667
     82 H293        -4.4180     3.2540    -2.9030 hc         1 ENB       0.050667
@<TRIPOS>BOND
     1     1     2 1   
     2     1     3 1   
     3     1    22 1   
     4     1    41 1   
     5     1    42 1   
     6     2    35 1   
     7     2    42 1   
     8     3     4 1   
     9     3    43 1   
    10     4     5 1   
    11     4     6 1   
    12     5     7 1   
    13     5     8 1   
    14     5    44 1   
    15     7    14 1   
    16     7    45 1   
    17     8     9 1   
    18     8    13 1   
    19     9    10 1   
    20     9    46 1   
    21    10    11 1   
    22    10    47 1   
    23    11    12 1   
    24    11    48 1   
    25    12    13 1   
    26    12    49 1   
    27    13    50 1   
    28    14    15 1   
    29    14    16 1   
    30    15    17 1   
    31    15    29 1   
    32    15    51 1   
    33    17    18 1   
    34    17    52 1   
    35    18    19 1   
    36    18    20 1   
    37    19    21 1   
    38    21    32 1   
    39    21    33 1   
    40    21    34 1   
    41    22    23 1   
    42    22    53 1   
    43    22    54 1   
    44    23    24 1   
    45    23    27 1   
    46    23    55 1   
    47    24    25 1   
    48    24    56 1   
    49    24    57 1   
    50    25    26 1   
    51    25    58 1   
    52    25    59 1   
    53    26    27 1   
    54    26    60 1   
    55    27    28 1   
    56    29    30 1   
    57    29    31 1   
    58    29    61 1   
    59    30    62 1   
    60    30    63 1   
    61    30    64 1   
    62    31    65 1   
    63    31    66 1   
    64    31    67 1   
    65    32    68 1   
    66    32    69 1   
    67    32    70 1   
    68    33    71 1   
    69    33    72 1   
    70    33    73 1   
    71    34    74 1   
    72    34    75 1   
    73    34    76 1   
    74    35    36 1   
    75    35    77 1   
    76    36    37 1   
    77    36    38 1   
    78    36    77 1   
    79    37    39 1   
    80    39    40 1   
    81    39    78 1   
    82    39    79 1   
    83    40    80 1   
    84    40    81 1   
    85    40    82 1   
@<TRIPOS>SUBSTRUCTURE
     1 ENB         1 TEMP              0 ****  ****    0 ROOT
