@<TRIPOS>MOLECULE
ENC
   10     9     1     0     0
SMALL
bcc


@<TRIPOS>ATOM
      1 C           -0.8580    -0.0200     2.4180 c1         1 ENC       0.359300
      2 N           -0.4760     0.0000     1.3480 n1         1 ENC      -0.036300
      3 C1           0.0000     0.0000     0.0000 c3         1 ENC       0.141100
      4 C2           1.5300     0.0000     0.0000 c3         1 ENC      -0.018100
      5 H           -1.2270     0.2180     3.4090 ha         1 ENC       0.227500
      6 H11         -0.0250     0.8170    -0.7110 h1         1 ENC       0.108700
      7 H12         -0.2150    -1.0250    -0.2760 h1         1 ENC       0.108700
      8 H21          1.8920    -0.2630    -0.9870 hc         1 ENC       0.035700
      9 H22          1.6710    -0.9010     0.5850 hc         1 ENC       0.035700
     10 H23          2.0200     0.7060     0.6600 hc         1 ENC       0.035700
@<TRIPOS>BOND
     1     1     2 3   
     2     1     5 1   
     3     2     3 1   
     4     3     4 1   
     5     3     6 1   
     6     3     7 1   
     7     4     8 1   
     8     4     9 1   
     9     4    10 1   
@<TRIPOS>SUBSTRUCTURE
     1 ENC         1 TEMP              0 ****  ****    0 ROOT
