@<TRIPOS>MOLECULE
molecule
   48    51     1     0     0
SMALL
bcc


@<TRIPOS>ATOM
      1 OAB          0.0000     0.0000     0.0000 oh         1 END      -0.601800
      2 CAP          1.4300     0.0000     0.0000 c3         1 END       0.154300
      3 CAF          1.9240     0.0000     1.4100 c2         1 END      -0.190200
      4 CAG          3.0290    -0.3320     1.9040 c2         1 END      -0.139200
      5 CAQ          4.3090    -0.7780     1.3000 c3         1 END       0.152300
      6 OAM          5.1540    -1.3520     2.3030 os         1 END      -0.408600
      7 CAX          6.4600    -1.6930     1.8420 c3         1 END       0.104100
      8 CAR          7.2840    -2.2860     2.9860 c3         1 END       0.164100
      9 OAC          7.4610    -1.3020     4.0070 oh         1 END      -0.587800
     10 CAW          8.6550    -2.7180     2.4480 c3         1 END       0.110100
     11 OAL          9.4060    -3.2830     3.5180 os         1 END      -0.407600
     12 CAH         10.7810    -3.5400     3.2450 c3         1 END       0.170600
     13 CAD         10.9100    -4.9180     2.6280 c2         1 END      -0.203200
     14 CAE         10.4770    -5.1230     1.4200 c2         1 END      -0.161200
     15 CAJ          9.8430    -3.9900     0.6470 c3         1 END      -0.047200
     16 CAU          8.4820    -3.6710     1.2770 c3         1 END       0.121100
     17 OAO          7.6440    -3.0860     0.2740 os         1 END      -0.410600
     18 CAV          6.3380    -2.7460     0.7330 c3         1 END       0.115100
     19 CAK          5.5080    -2.1570    -0.4110 c3         1 END      -0.067400
     20 CAT          4.1380    -1.7410     0.1390 c3         1 END       0.138100
     21 OAN          3.3300    -1.2250    -0.8770 os         1 END      -0.406600
     22 CAS          1.9320    -1.2270    -0.7370 c3         1 END       0.171100
     23 CAI          1.2940    -1.2670    -2.1280 c3         1 END       0.146400
     24 OAA          1.6670    -2.4780    -2.7890 oh         1 END      -0.604800
     25 HAA          1.1830    -2.5590    -3.5940 ho         1 END       0.402000
     26 HAI1         1.6370    -0.4190    -2.7080 h1         1 END       0.038200
     27 HAI2         0.2150    -1.2260    -2.0320 h1         1 END       0.038200
     28 HAS          1.6370    -2.1110    -0.1850 h1         1 END       0.060700
     29 HAT          3.6540    -2.6320     0.5210 h1         1 END       0.041700
     30 HAK1         5.3770    -2.9030    -1.1850 hc         1 END       0.071200
     31 HAK2         6.0140    -1.2890    -0.8160 hc         1 END       0.071200
     32 HAV          5.8460    -3.6290     1.1220 h1         1 END       0.051700
     33 HAU          8.0280    -4.5890     1.6290 h1         1 END       0.054700
     34 HAJ1        10.4800    -3.1160     0.6970 hc         1 END       0.063700
     35 HAJ2         9.7050    -4.2890    -0.3850 hc         1 END       0.063700
     36 HAE         10.6440    -6.0790     0.9400 ha         1 END       0.131000
     37 HAD         11.2490    -5.7520     3.2310 ha         1 END       0.134000
     38 HAH1        11.3460    -3.5030     4.1690 h1         1 END       0.054700
     39 HAH2        11.1580    -2.7970     2.5530 h1         1 END       0.054700
     40 HAW          9.1760    -1.8360     2.0950 h1         1 END       0.055700
     41 HAR          6.7690    -3.1490     3.3920 h1         1 END       0.053700
     42 HAC          7.0630    -1.6050     4.8070 ho         1 END       0.412000
     43 HAX          6.9530    -0.8100     1.4550 h1         1 END       0.066700
     44 HAQ          4.8110     0.1030     0.9180 h1         1 END       0.053700
     45 HAG          3.0540    -0.2810     2.9850 ha         1 END       0.131000
     46 HAF          1.1990     0.3480     2.1350 ha         1 END       0.125000
     47 HAP          1.7910     0.8890    -0.5030 h1         1 END       0.050700
     48 HAB         -0.3140     0.8800     0.1230 ho         1 END       0.408000
@<TRIPOS>BOND
     1     1     2 1
     2     1    48 1
     3     2     3 1
     4     2    22 1
     5     2    47 1
     6     3     4 2
     7     3    46 1
     8     4     5 1
     9     4    45 1
    10     5     6 1
    11     5    20 1
    12     5    44 1
    13     6     7 1
    14     7     8 1
    15     7    18 1
    16     7    43 1
    17     8    10 1
    18     8    41 1
    19     8     9 1
    20     9    42 1
    21    10    11 1
    22    10    16 1
    23    10    40 1
    24    11    12 1
    25    12    13 1
    26    12    38 1
    27    12    39 1
    28    13    14 2
    29    13    37 1
    30    14    15 1
    31    14    36 1
    32    15    16 1
    33    15    34 1
    34    15    35 1
    35    16    17 1
    36    16    33 1
    37    17    18 1
    38    18    19 1
    39    18    32 1
    40    19    20 1
    41    19    30 1
    42    19    31 1
    43    20    21 1
    44    20    29 1
    45    21    22 1
    46    22    23 1
    47    22    28 1
    48    23    24 1
    49    23    26 1
    50    23    27 1
    51    24    25 1
@<TRIPOS>SUBSTRUCTURE
     1 END         1 TEMP              0 ****  ****    0 ROOT
