@<TRIPOS>MOLECULE
END
   48    51     1     0     0
SMALL
bcc


@<TRIPOS>ATOM
      1 OAB         0.2470    0.3900   -0.2400 oh        1 END     -0.595800
      2 CAP         1.5900    0.0330    0.0650 c3        1 END      0.148300
      3 CAF         1.7550   -0.2500    1.5230 c2        1 END     -0.213200
      4 CAG         2.8830   -0.6810    2.0880 c2        1 END     -0.145200
      5 CAQ         4.1560   -0.9410    1.3510 c3        1 END      0.142300
      6 OAM         5.0710   -1.4280    2.3440 os        1 END     -0.395600
      7 CAX         6.3530   -1.7190    1.7940 c3        1 END      0.115100
      8 CAR         7.2740   -2.1340    2.9450 c3        1 END      0.152100
      9 OAC         7.5400   -0.9760    3.7170 oh        1 END     -0.586800
     10 CAW         8.5980   -2.6770    2.3620 c3        1 END      0.076100
     11 OAL         9.2690   -3.2310    3.4930 os        1 END     -0.419600
     12 CAH        10.6680   -3.4320    3.3230 c3        1 END      0.163600
     13 CAD        11.0040   -4.6600    2.5530 c2        1 END     -0.202200
     14 CAE        10.5500   -4.9540    1.3330 c2        1 END     -0.148200
     15 CAJ         9.6430   -4.1010    0.5310 c3        1 END     -0.053200
     16 CAU         8.3620   -3.7430    1.2820 c3        1 END      0.123100
     17 OAO         7.4730   -3.2480    0.2710 os        1 END     -0.406600
     18 CAV         6.2040   -2.8880    0.8080 c3        1 END      0.111100
     19 CAK         5.3150   -2.4540   -0.3460 c3        1 END     -0.080400
     20 CAT         3.9760   -1.9630    0.2060 c3        1 END      0.124100
     21 OAN         3.3380   -1.3370   -0.9080 os        1 END     -0.427600
     22 CAS         1.9210   -1.2020   -0.7950 c3        1 END      0.110100
     23 CAI         1.4210   -1.0220   -2.2340 c3        1 END      0.140400
     24 OAA         1.7030   -2.1610   -3.0160 oh        1 END     -0.598800
     25 HAA         2.6620   -2.2810   -3.0050 ho        1 END      0.408000
     26 HAI1        0.3020   -0.9260   -2.2310 h1        1 END      0.064700
     27 HAI2        1.8860   -0.1070   -2.6860 h1        1 END      0.064700
     28 HAS         1.4690   -2.1250   -0.3430 h1        1 END      0.068700
     29 HAT         3.3660   -2.8330    0.5740 h1        1 END      0.059700
     30 HAK1        5.1430   -3.3100   -1.0460 hc        1 END      0.072200
     31 HAK2        5.8120   -1.6360   -0.9280 hc        1 END      0.072200
     32 HAV         5.7530   -3.7740    1.3380 h1        1 END      0.056700
     33 HAU         7.9130   -4.6600    1.7550 h1        1 END      0.061700
     34 HAJ1       10.1740   -3.1550    0.2360 hc        1 END      0.066200
     35 HAJ2        9.3550   -4.6270   -0.4190 hc        1 END      0.066200
     36 HAE        10.8690   -5.8870    0.8370 ha        1 END      0.128000
     37 HAD        11.6990   -5.3460    3.0660 ha        1 END      0.130000
     38 HAH1       11.1370   -2.5320    2.8380 h1        1 END      0.056700
     39 HAH2       11.0390   -3.5180    4.3830 h1        1 END      0.056700
     40 HAW         9.1930   -1.8220    1.9350 h1        1 END      0.064700
     41 HAR         6.7800   -2.9190    3.5810 h1        1 END      0.066700
     42 HAC         8.0840   -1.2690    4.4610 ho        1 END      0.415000
     43 HAX         6.7680   -0.8100    1.2800 h1        1 END      0.071700
     44 HAQ         4.5590    0.0210    0.9180 h1        1 END      0.066700
     45 HAG         2.9430   -0.8590    3.1770 ha        1 END      0.152000
     46 HAF         0.8550   -0.0760    2.1360 ha        1 END      0.137000
     47 HAP         2.2780    0.8770   -0.2360 h1        1 END      0.055700
     48 HAB         0.0330    1.1580    0.3040 ho        1 END      0.407000
@<TRIPOS>BOND
     1    1    2 1   
     2    1   48 1   
     3    2    3 1   
     4    2   22 1   
     5    2   47 1   
     6    3    4 2   
     7    3   46 1   
     8    4    5 1   
     9    4   45 1   
    10    5    6 1   
    11    5   20 1   
    12    5   44 1   
    13    6    7 1   
    14    7    8 1   
    15    7   18 1   
    16    7   43 1   
    17    8    9 1   
    18    8   10 1   
    19    8   41 1   
    20    9   42 1   
    21   10   11 1   
    22   10   16 1   
    23   10   40 1   
    24   11   12 1   
    25   12   13 1   
    26   12   38 1   
    27   12   39 1   
    28   13   14 2   
    29   13   37 1   
    30   14   15 1   
    31   14   36 1   
    32   15   16 1   
    33   15   34 1   
    34   15   35 1   
    35   16   17 1   
    36   16   33 1   
    37   17   18 1   
    38   18   19 1   
    39   18   32 1   
    40   19   20 1   
    41   19   30 1   
    42   19   31 1   
    43   20   21 1   
    44   20   29 1   
    45   21   22 1   
    46   22   23 1   
    47   22   28 1   
    48   23   24 1   
    49   23   26 1   
    50   23   27 1   
    51   24   25 1   
@<TRIPOS>SUBSTRUCTURE
     1 END         1 TEMP              0 ****  ****    0 ROOT
