@<TRIPOS>MOLECULE
molecule
   60    64     1     0     0
SMALL
bcc


@<TRIPOS>ATOM
      1 OAB          0.0000     0.0000     0.0000 oh         1 ENE      -0.598800
      2 CAT          1.4230     0.0000     0.0000 c3         1 ENE       0.159300
      3 CAG          2.0040     0.0000     1.3760 c2         1 ENE      -0.193200
      4 CAF          1.5310    -0.6190     2.4120 c2         1 ENE      -0.112200
      5 CAM          0.2940    -1.4470     2.3470 c3         1 ENE      -0.060200
      6 CAY          0.4480    -2.8480     1.8090 c3         1 ENE       0.178100
      7 OAR         -0.7270    -3.5590     2.1480 os         1 ENE      -0.436600
      8 CAZ         -0.7420    -4.9430     2.3460 c3         1 ENE       0.145100
      9 CAN         -1.8510    -5.3110     3.3400 c3         1 ENE      -0.074400
     10 CBB         -1.9220    -6.8320     3.4930 c3         1 ENE       0.118100
     11 OAS         -3.0090    -7.1800     4.3480 os         1 ENE      -0.413600
     12 CBA         -3.2080    -8.5810     4.5320 c3         1 ENE       0.121100
     13 CAL         -4.4360    -8.7810     5.4340 c3         1 ENE      -0.047200
     14 CAE         -4.2380   -10.0640     6.2080 c2         1 ENE      -0.161200
     15 CAD         -4.2870   -11.2040     5.5860 c2         1 ENE      -0.204200
     16 CAJ         -4.5690   -11.2340     4.0980 c3         1 ENE       0.171600
     17 OAO         -3.4410   -10.7290     3.3880 os         1 ENE      -0.407600
     18 CBC         -3.3930    -9.3150     3.2180 c3         1 ENE       0.111100
     19 CAW         -2.2510    -8.9690     2.2540 c3         1 ENE       0.165100
     20 OAC         -2.5110    -9.5570     0.9770 oh         1 ENE      -0.587800
     21 CBD         -2.1590    -7.4500     2.1100 c3         1 ENE       0.105100
     22 OAQ         -1.0720    -7.0880     1.2590 os         1 ENE      -0.407600
     23 CAV         -0.9560    -5.6790     1.0310 c3         1 ENE       0.155300
     24 CAI          0.1750    -5.4110     0.0990 c2         1 ENE      -0.154200
     25 CAH          0.8070    -4.3590    -0.1620 c2         1 ENE      -0.163200
     26 CAU          0.7240    -2.9470     0.3170 c3         1 ENE       0.160300
     27 OAP          2.0130    -2.3610     0.0300 os         1 ENE      -0.401600
     28 CAX          1.9670    -1.1760    -0.7830 c3         1 ENE       0.139100
     29 CAK          3.3810    -0.8460    -1.2730 c3         1 ENE       0.149400
     30 OAA          3.8540    -1.9020    -2.1110 oh         1 ENE      -0.596800
     31 HAA          4.6610    -1.6400    -2.5220 ho         1 ENE       0.402000
     32 HAK1         4.0420    -0.7360    -0.4220 h1         1 ENE       0.029700
     33 HAK2         3.3610     0.0800    -1.8360 h1         1 ENE       0.029700
     34 HAX          1.3240    -1.3590    -1.6370 h1         1 ENE       0.057700
     35 HAU         -0.0470    -2.4210    -0.2320 h1         1 ENE       0.077700
     36 HAH          1.5870    -4.5080    -0.8990 ha         1 ENE       0.135000
     37 HAI          0.5110    -6.2800    -0.4530 ha         1 ENE       0.131000
     38 HAV         -1.8730    -5.3230     0.5780 h1         1 ENE       0.059700
     39 HBD         -3.0850    -7.0690     1.6960 h1         1 ENE       0.064700
     40 HAW         -1.3170    -9.3500     2.6500 h1         1 ENE       0.053700
     41 HAC         -1.8030   -10.1350     0.7470 ho         1 ENE       0.412000
     42 HBC         -4.3270    -8.9910     2.7740 h1         1 ENE       0.055700
     43 HAJ1        -5.4340   -10.6190     3.8830 h1         1 ENE       0.054200
     44 HAJ2        -4.7600   -12.2550     3.7890 h1         1 ENE       0.054200
     45 HAD         -4.0190   -12.1160     6.1050 ha         1 ENE       0.133000
     46 HAE         -4.1630   -10.0390     7.2880 ha         1 ENE       0.131000
     47 HAL1        -4.5230    -7.9490     6.1220 hc         1 ENE       0.063700
     48 HAL2        -5.3290    -8.8560     4.8250 hc         1 ENE       0.063700
     49 HBA         -2.3400    -8.9900     5.0360 h1         1 ENE       0.051700
     50 HBB         -0.9930    -7.2050     3.9080 h1         1 ENE       0.050700
     51 HAN1        -2.8000    -4.9420     2.9720 hc         1 ENE       0.067200
     52 HAN2        -1.6330    -4.8630     4.3030 hc         1 ENE       0.067200
     53 HAZ          0.2120    -5.2450     2.7620 h1         1 ENE       0.042700
     54 HAY          1.2780    -3.3120     2.3290 h1         1 ENE       0.037700
     55 HAM1        -0.1120    -1.5170     3.3490 hc         1 ENE       0.070200
     56 HAM2        -0.4220    -0.9270     1.7230 hc         1 ENE       0.070200
     57 HAF          2.0530    -0.5310     3.3570 ha         1 ENE       0.122000
     58 HAG          2.9100     0.5750     1.5230 ha         1 ENE       0.118000
     59 HAT          1.7560     0.9040    -0.4950 h1         1 ENE       0.030700
     60 HAB         -0.3140     0.7880    -0.4120 ho         1 ENE       0.406000
@<TRIPOS>BOND
     1     1     2 1
     2     1    60 1
     3     2     3 1
     4     2    28 1
     5     2    59 1
     6     3     4 2
     7     3    58 1
     8     4     5 1
     9     4    57 1
    10     5     6 1
    11     5    55 1
    12     5    56 1
    13     6     7 1
    14     6    26 1
    15     6    54 1
    16     7     8 1
    17     8     9 1
    18     8    23 1
    19     8    53 1
    20     9    10 1
    21     9    51 1
    22     9    52 1
    23    10    11 1
    24    10    21 1
    25    10    50 1
    26    11    12 1
    27    12    13 1
    28    12    18 1
    29    12    49 1
    30    13    14 1
    31    13    47 1
    32    13    48 1
    33    14    15 2
    34    14    46 1
    35    15    16 1
    36    15    45 1
    37    16    17 1
    38    16    43 1
    39    16    44 1
    40    17    18 1
    41    18    19 1
    42    18    42 1
    43    19    21 1
    44    19    40 1
    45    19    20 1
    46    20    41 1
    47    21    22 1
    48    21    39 1
    49    22    23 1
    50    23    24 1
    51    23    38 1
    52    24    25 2
    53    24    37 1
    54    25    26 1
    55    25    36 1
    56    26    27 1
    57    26    35 1
    58    27    28 1
    59    28    29 1
    60    28    34 1
    61    29    30 1
    62    29    32 1
    63    29    33 1
    64    30    31 1
@<TRIPOS>SUBSTRUCTURE
     1 ENE         1 TEMP              0 ****  ****    0 ROOT
