@<TRIPOS>MOLECULE
ENE
   60    64     1     0     0
SMALL
bcc


@<TRIPOS>ATOM
      1 OAB         0.1070    0.4650   -0.1020 oh        1 ENE     -0.604800
      2 CAT         1.4990    0.1670   -0.0170 c3        1 ENE      0.156300
      3 CAG         2.0060    0.0970    1.3860 c2        1 ENE     -0.208200
      4 CAF         1.4700   -0.6180    2.3790 c2        1 ENE     -0.120200
      5 CAM         0.2330   -1.4260    2.2790 c3        1 ENE     -0.064200
      6 CAY         0.5180   -2.8870    1.9100 c3        1 ENE      0.147100
      7 OAR        -0.6960   -3.5590    2.2570 os        1 ENE     -0.418600
      8 CAZ        -0.5760   -4.9610    2.4880 c3        1 ENE      0.124100
      9 CAN        -1.7170   -5.3000    3.4470 c3        1 ENE     -0.080400
     10 CBB        -1.8610   -6.8100    3.5350 c3        1 ENE      0.117100
     11 OAS        -3.0130   -7.0980    4.3230 os        1 ENE     -0.407600
     12 CBA        -3.1760   -8.5050    4.5370 c3        1 ENE      0.119100
     13 CAL        -4.4500   -8.6250    5.3720 c3        1 ENE     -0.050200
     14 CAE        -4.6000   -9.9520    6.0110 c2        1 ENE     -0.154200
     15 CAD        -4.5160  -11.1360    5.3990 c2        1 ENE     -0.200200
     16 CAJ        -4.2350  -11.3640    3.9560 c3        1 ENE      0.161600
     17 OAO        -3.0870  -10.6740    3.4790 os        1 ENE     -0.401600
     18 CBC        -3.2940   -9.2870    3.2150 c3        1 ENE      0.118100
     19 CAW        -2.1950   -8.9130    2.2000 c3        1 ENE      0.151100
     20 OAC        -2.6160   -9.4200    0.9450 oh        1 ENE     -0.590800
     21 CBD        -2.0580   -7.3870    2.1290 c3        1 ENE      0.071100
     22 OAQ        -0.9120   -7.1090    1.3280 os        1 ENE     -0.418600
     23 CAV        -0.7090   -5.6990    1.1390 c3        1 ENE      0.149300
     24 CAI         0.5310   -5.5850    0.3180 c2        1 ENE     -0.160200
     25 CAH         1.1710   -4.4570    0.0160 c2        1 ENE     -0.175200
     26 CAU         0.7970   -3.0610    0.4020 c3        1 ENE      0.154300
     27 OAP         1.9370   -2.2550    0.0680 os        1 ENE     -0.425600
     28 CAX         1.6910   -1.1510   -0.8000 c3        1 ENE      0.107100
     29 CAK         2.9430   -1.0530   -1.6850 c3        1 ENE      0.131400
     30 OAA         3.1850   -2.2660   -2.3630 oh        1 ENE     -0.596800
     31 HAA         3.2620   -2.9550   -1.6900 ho        1 ENE      0.412000
     32 HAK1        2.7820   -0.2910   -2.4930 h1        1 ENE      0.054200
     33 HAK2        3.8320   -0.7730   -1.0600 h1        1 ENE      0.054200
     34 HAX         0.7830   -1.3330   -1.4390 h1        1 ENE      0.080700
     35 HAU        -0.1180   -2.7410   -0.1730 h1        1 ENE      0.077700
     36 HAH         2.0820   -4.5060   -0.6100 ha        1 ENE      0.138000
     37 HAI         0.9080   -6.5530   -0.0590 ha        1 ENE      0.147000
     38 HAV        -1.5920   -5.2770    0.5780 h1        1 ENE      0.067700
     39 HBD        -2.9740   -6.9430    1.6490 h1        1 ENE      0.070700
     40 HAW        -1.2170   -9.3810    2.4980 h1        1 ENE      0.067700
     41 HAC        -1.9110   -9.2080    0.3190 ho        1 ENE      0.415000
     42 HBC        -4.3010   -9.1160    2.7440 h1        1 ENE      0.068700
     43 HAJ1       -3.9700  -12.4440    3.7740 h1        1 ENE      0.058200
     44 HAJ2       -5.1390  -11.0980    3.3400 h1        1 ENE      0.058200
     45 HAD        -4.6790  -12.0620    5.9760 ha        1 ENE      0.127000
     46 HAE        -4.8280   -9.9150    7.0910 ha        1 ENE      0.124000
     47 HAL1       -5.3410   -8.4180    4.7190 hc        1 ENE      0.064700
     48 HAL2       -4.4250   -7.8220    6.1580 hc        1 ENE      0.064700
     49 HBA        -2.2900   -8.8950    5.1120 h1        1 ENE      0.061700
     50 HBB        -0.9480   -7.2650    4.0120 h1        1 ENE      0.055700
     51 HAN1       -1.5020   -4.8710    4.4580 hc        1 ENE      0.071700
     52 HAN2       -2.6720   -4.8410    3.0820 hc        1 ENE      0.071700
     53 HAZ         0.4130   -5.2110    2.9590 h1        1 ENE      0.058700
     54 HAY         1.3830   -3.2860    2.5050 h1        1 ENE      0.058700
     55 HAM1       -0.3020   -1.4150    3.2670 hc        1 ENE      0.070700
     56 HAM2       -0.4690   -0.9970    1.5140 hc        1 ENE      0.070700
     57 HAF         1.9530   -0.6250    3.3720 ha        1 ENE      0.122000
     58 HAG         2.9310    0.6730    1.5580 ha        1 ENE      0.127000
     59 HAT         2.0520    0.9880   -0.5640 h1        1 ENE      0.041700
     60 HAB        -0.0670    1.1830    0.5170 ho        1 ENE      0.409000
@<TRIPOS>BOND
     1    1    2 1   
     2    1   60 1   
     3    2    3 1   
     4    2   28 1   
     5    2   59 1   
     6    3    4 2   
     7    3   58 1   
     8    4    5 1   
     9    4   57 1   
    10    5    6 1   
    11    5   55 1   
    12    5   56 1   
    13    6    7 1   
    14    6   26 1   
    15    6   54 1   
    16    7    8 1   
    17    8    9 1   
    18    8   23 1   
    19    8   53 1   
    20    9   10 1   
    21    9   51 1   
    22    9   52 1   
    23   10   11 1   
    24   10   21 1   
    25   10   50 1   
    26   11   12 1   
    27   12   13 1   
    28   12   18 1   
    29   12   49 1   
    30   13   14 1   
    31   13   47 1   
    32   13   48 1   
    33   14   15 2   
    34   14   46 1   
    35   15   16 1   
    36   15   45 1   
    37   16   17 1   
    38   16   43 1   
    39   16   44 1   
    40   17   18 1   
    41   18   19 1   
    42   18   42 1   
    43   19   20 1   
    44   19   21 1   
    45   19   40 1   
    46   20   41 1   
    47   21   22 1   
    48   21   39 1   
    49   22   23 1   
    50   23   24 1   
    51   23   38 1   
    52   24   25 2   
    53   24   37 1   
    54   25   26 1   
    55   25   36 1   
    56   26   27 1   
    57   26   35 1   
    58   27   28 1   
    59   28   29 1   
    60   28   34 1   
    61   29   30 1   
    62   29   32 1   
    63   29   33 1   
    64   30   31 1   
@<TRIPOS>SUBSTRUCTURE
     1 ENE         1 TEMP              0 ****  ****    0 ROOT
