@<TRIPOS>MOLECULE
molecule
  131   131     1     0     0
SMALL
bcc


@<TRIPOS>ATOM
      1 C            0.0000     0.0000     0.0000 c3         1 ENF       0.112000
      2 N            1.4650     0.0000     0.0000 ns         1 ENF      -0.592900
      3 O           -7.8740     0.0020     8.1130 o          1 ENF      -0.615100
      4 C1          -0.5110     0.0000     1.4420 c3         1 ENF      -0.101400
      5 N1          -9.9880     0.0020     7.4370 ns         1 ENF      -0.573900
      6 C2          -2.0400     0.0010     1.4430 c3         1 ENF      -0.078400
      7 N2         -12.5090    -0.7010    10.0380 ns         1 ENF      -0.567900
      8 C3          -2.5500     0.0010     2.8850 c3         1 ENF      -0.081400
      9 N3         -12.2570    -6.8850     7.7970 nz         1 ENF      -0.812600
     10 C4          -4.0800     0.0000     2.8850 c3         1 ENF      -0.081400
     11 C5          -4.5900     0.0010     4.3270 c3         1 ENF      -0.080400
     12 C6          -6.1210     0.0010     4.3270 c3         1 ENF      -0.085400
     13 C7          -6.6300     0.0020     5.7700 c3         1 ENF      -0.067400
     14 C8          -8.1600     0.0020     5.7700 c3         1 ENF      -0.153400
     15 C9          -8.6620     0.0020     7.1910 c          1 ENF       0.656100
     16 C10        -10.4760     0.0020     8.8180 c3         1 ENF       0.052700
     17 C11        -10.5270     1.4390     9.3410 c3         1 ENF       0.127400
     18 C12        -11.8570    -0.5980     8.8630 c          1 ENF       0.666100
     19 C13        -13.8530    -1.2850    10.0810 c3         1 ENF       0.052700
     20 C14        -13.7440    -2.8080    10.1740 c3         1 ENF      -0.174400
     21 C15        -13.1070    -3.3540     8.8940 c3         1 ENF      -0.102400
     22 C16        -12.9990    -4.8770     8.9880 c3         1 ENF      -0.088400
     23 C17        -12.3610    -5.4220     7.7070 c3         1 ENF       0.091800
     24 C18        -14.5900    -0.7600    11.2850 c          1 ENF       0.652100
     25 C19        -16.5700    -0.6510    12.7010 c3         1 ENF       0.107000
     26 C20        -17.9730    -1.2600    12.7460 c3         1 ENF      -0.096400
     27 C21        -18.7220    -0.7260    13.9690 c3         1 ENF      -0.068700
     28 C22        -18.9390     0.7810    13.8170 c3         1 ENF      -0.081400
     29 C23        -19.6880     1.3140    15.0390 c3         1 ENF      -0.090400
     30 C24        -21.0430     0.6120    15.1550 c3         1 ENF      -0.070400
     31 C25        -20.8250    -0.8950    15.3080 c3         1 ENF      -0.090400
     32 C26        -20.0760    -1.4290    14.0840 c3         1 ENF      -0.081400
     33 C27          2.1390    -0.0010    -1.1670 c          1 ENF       0.655100
     34 O28          1.5320    -0.0000    -2.2180 o          1 ENF      -0.608100
     35 C29          3.6460    -0.0010    -1.1670 c3         1 ENF      -0.157400
     36 C30          4.1550    -0.0010    -2.6090 c3         1 ENF      -0.066400
     37 C31          5.6860    -0.0010    -2.6090 c3         1 ENF      -0.085400
     38 C32          6.1960    -0.0020    -4.0530 c3         1 ENF      -0.080400
     39 C33          7.7260    -0.0010    -4.0520 c3         1 ENF      -0.082400
     40 C34          8.2360    -0.0010    -5.4950 c3         1 ENF      -0.081400
     41 C35          9.7650    -0.0020    -5.4940 c3         1 ENF      -0.081400
     42 C36         10.2750    -0.0020    -6.9370 c3         1 ENF      -0.082400
     43 C37         11.8060    -0.0030    -6.9380 c3         1 ENF      -0.082400
     44 C38         12.3160    -0.0030    -8.3790 c3         1 ENF      -0.082400
     45 C39         13.8460    -0.0020    -8.3800 c3         1 ENF      -0.081400
     46 C40         14.3560    -0.0020    -9.8220 c3         1 ENF      -0.084400
     47 C41         15.8850    -0.0030    -9.8220 c3         1 ENF      -0.092100
     48 H           -0.3610     0.8840    -0.5110 h1         1 ENF       0.053200
     49 HA          -0.3610    -0.8840    -0.5110 h1         1 ENF       0.053200
     50 HN           1.9650     0.0000     0.8670 hn         1 ENF       0.311500
     51 H1          -0.1490     0.8840     1.9530 hc         1 ENF       0.045200
     52 H1A         -0.1500    -0.8850     1.9530 hc         1 ENF       0.045200
     53 HN1        -10.6380    -0.0150     6.6760 hn         1 ENF       0.341500
     54 HO1        -11.4820     3.0830     8.8770 ho         1 ENF       0.418000
     55 H2          -2.4010    -0.8840     0.9320 hc         1 ENF       0.046200
     56 H2A         -2.4000     0.8850     0.9320 hc         1 ENF       0.046200
     57 HN2        -12.0630    -0.4100    10.8850 hn         1 ENF       0.347500
     58 H3          -2.1890    -0.8840     3.3960 hc         1 ENF       0.042700
     59 H3A         -2.1890     0.8850     3.3950 hc         1 ENF       0.042700
     60 HN3        -11.8390    -7.2420     6.9600 hn         1 ENF       0.456133
     61 HN3A       -13.1710    -7.2790     7.9080 hn         1 ENF       0.456133
     62 H4A         -4.4410    -0.8850     2.3760 hc         1 ENF       0.042200
     63 HN4        -16.3100    -1.7900    10.8990 hn         1 ENF       0.312500
     64 H5A         -4.2290     0.8860     4.8370 hc         1 ENF       0.044700
     65 H6          -6.4820     0.8850     3.8160 hc         1 ENF       0.040200
     66 H6A         -6.4820    -0.8840     3.8170 hc         1 ENF       0.040200
     67 H7          -6.2690    -0.8820     6.2820 hc         1 ENF       0.058200
     68 H7A         -6.2690     0.8870     6.2810 hc         1 ENF       0.058200
     69 H8          -8.5210     0.8860     5.2590 hc         1 ENF       0.062200
     70 H8A         -8.5210    -0.8830     5.2590 hc         1 ENF       0.062200
     71 H10         -9.8080    -0.5840     9.4370 h1         1 ENF       0.095700
     72 H11         -9.5530     1.9000     9.2280 h1         1 ENF       0.045200
     73 H11A       -10.8040     1.4330    10.3890 h1         1 ENF       0.045200
     74 H13        -14.3930    -1.0160     9.1810 h1         1 ENF       0.099700
     75 H14        -12.7060    -2.6910    10.4580 hc         1 ENF       0.078200
     76 H14A       -14.3410    -3.4140    10.8450 hc         1 ENF       0.078200
     77 H15        -12.1120    -2.9380     8.7890 hc         1 ENF       0.087700
     78 H15A       -13.7920    -2.7860     8.2760 hc         1 ENF       0.087700
     79 H16        -13.9880    -5.3020     9.1080 hc         1 ENF       0.061700
     80 H16A       -12.3840    -5.1440     9.8390 hc         1 ENF       0.061700
     81 H17        -12.9760    -5.1550     6.8560 hx         1 ENF       0.116700
     82 H17A       -11.3730    -4.9960     7.5860 hx         1 ENF       0.116700
     83 H19        -16.6470     0.4280    12.6360 h1         1 ENF       0.062200
     84 H19A       -16.0310    -0.9210    13.6010 h1         1 ENF       0.062200
     85 H20        -17.8960    -2.3380    12.8120 hc         1 ENF       0.044700
     86 H20A       -18.5120    -0.9900    11.8470 hc         1 ENF       0.044700
     87 H21        -18.1420    -0.9160    14.8640 hc         1 ENF       0.055700
     88 H22        -17.9790     1.2770    13.7380 hc         1 ENF       0.040950
     89 H22A       -19.5240     0.9720    12.9250 hc         1 ENF       0.040950
     90 H23        -19.6430     2.3830    15.2080 hc         1 ENF       0.051200
     91 H23A       -18.9900     0.7080    15.6050 hc         1 ENF       0.051200
     92 H24        -21.5710     0.9890    16.0220 hc         1 ENF       0.045700
     93 H24A       -21.6240     0.8020    14.2610 hc         1 ENF       0.045700
     94 H25        -21.7840    -1.3910    15.3880 hc         1 ENF       0.051200
     95 H25A       -20.2390    -1.0840    16.1990 hc         1 ENF       0.051200
     96 H26        -19.9210    -2.4950    14.1950 hc         1 ENF       0.040950
     97 H26A       -20.6600    -1.2340    13.1930 hc         1 ENF       0.040950
     98 H29          4.0070    -0.8860    -0.6570 hc         1 ENF       0.058200
     99 H29A         4.0080     0.8830    -0.6560 hc         1 ENF       0.058200
    100 H30          3.7940    -0.8850    -3.1200 hc         1 ENF       0.059200
    101 H30A         3.7940     0.8840    -3.1200 hc         1 ENF       0.059200
    102 H31          6.0470    -0.8850    -2.0980 hc         1 ENF       0.038200
    103 H31A         6.0470     0.8840    -2.0990 hc         1 ENF       0.038200
    104 H32          5.8350    -0.8860    -4.5630 hc         1 ENF       0.044200
    105 H32A         5.8350     0.8830    -4.5640 hc         1 ENF       0.044200
    106 H33          8.0870     0.8830    -3.5410 hc         1 ENF       0.040200
    107 H33A         8.0870    -0.8860    -3.5410 hc         1 ENF       0.040200
    108 H34          7.8750     0.8840    -6.0050 hc         1 ENF       0.042200
    109 H34A         7.8740    -0.8850    -6.0060 hc         1 ENF       0.042200
    110 H35         10.1260    -0.8870    -4.9840 hc         1 ENF       0.040700
    111 H35A        10.1270     0.8820    -4.9830 hc         1 ENF       0.040700
    112 H36A         9.9150     0.8830    -7.4480 hc         1 ENF       0.041200
    113 H36B         9.9140    -0.8860    -7.4480 hc         1 ENF       0.041200
    114 H37A        12.1670     0.8810    -6.4270 hc         1 ENF       0.040700
    115 H37B        12.1660    -0.8880    -6.4270 hc         1 ENF       0.040700
    116 H38         11.9540     0.8820    -8.8900 hc         1 ENF       0.040700
    117 H38A        11.9540    -0.8870    -8.8900 hc         1 ENF       0.040700
    118 H39         14.2070     0.8820    -7.8690 hc         1 ENF       0.040700
    119 H39A        14.2070    -0.8870    -7.8690 hc         1 ENF       0.040700
    120 H40         13.9950     0.8820   -10.3330 hc         1 ENF       0.039700
    121 H40A        13.9950    -0.8870   -10.3330 hc         1 ENF       0.039700
    122 H41         16.2460    -0.8890    -9.3150 hc         1 ENF       0.032700
    123 H41A        16.2460    -0.0000   -10.8440 hc         1 ENF       0.032700
    124 H41B        16.2470     0.8800    -9.3090 hc         1 ENF       0.032700
    125 H4B         -4.4420     0.8840     2.3740 hc         1 ENF       0.042200
    126 H5B         -4.2290    -0.8830     4.8390 hc         1 ENF       0.044700
    127 O1         -11.4950     2.1820     8.5980 oh         1 ENF      -0.609800
    128 O2         -12.3830    -0.9870     7.8410 o          1 ENF      -0.635100
    129 O3         -14.0470     0.0250    12.0340 o          1 ENF      -0.596100
    130 N4         -15.8530    -1.1620    11.5310 ns         1 ENF      -0.577900
    131 H331       -11.6940    -7.1320     8.5870 hn         1 ENF       0.456133
@<TRIPOS>BOND
     1     2     1 1
     2     1     4 1
     3     1    48 1
     4     1    49 1
     5    33     2 1
     6     2    50 1
     7     3    15 2
     8     6     4 1
     9     4    51 1
    10     4    52 1
    11    15     5 1
    12    16     5 1
    13     5    53 1
    14   127    17 1
    15   127    54 1
    16     6     8 1
    17     6    55 1
    18     6    56 1
    19    18     7 1
    20     7    19 1
    21     7    57 1
    22    18   128 2
    23    10     8 1
    24     8    58 1
    25     8    59 1
    26     9    23 1
    27     9    60 1
    28     9    61 1
    29   129    24 2
    30    10    11 1
    31    10    62 1
    32    24   130 1
    33    25   130 1
    34   130    63 1
    35    11    12 1
    36    11    64 1
    37    12    13 1
    38    12    65 1
    39    12    66 1
    40    13    14 1
    41    13    67 1
    42    13    68 1
    43    15    14 1
    44    14    69 1
    45    14    70 1
    46    17    16 1
    47    16    18 1
    48    16    71 1
    49    17    72 1
    50    17    73 1
    51    24    19 1
    52    19    20 1
    53    19    74 1
    54    21    20 1
    55    20    75 1
    56    20    76 1
    57    21    22 1
    58    21    77 1
    59    21    78 1
    60    23    22 1
    61    22    79 1
    62    22    80 1
    63    23    81 1
    64    23    82 1
    65    25    26 1
    66    25    83 1
    67    25    84 1
    68    27    26 1
    69    26    85 1
    70    26    86 1
    71    28    27 1
    72    27    32 1
    73    27    87 1
    74    29    28 1
    75    28    88 1
    76    28    89 1
    77    29    30 1
    78    29    90 1
    79    29    91 1
    80    30    31 1
    81    30    92 1
    82    30    93 1
    83    31    32 1
    84    31    94 1
    85    31    95 1
    86    32    96 1
    87    32    97 1
    88    35    33 1
    89    33    34 2
    90    36    35 1
    91    35    98 1
    92    35    99 1
    93    37    36 1
    94    36   100 1
    95    36   101 1
    96    38    37 1
    97    37   102 1
    98    37   103 1
    99    39    38 1
   100    38   104 1
   101    38   105 1
   102    40    39 1
   103    39   106 1
   104    39   107 1
   105    41    40 1
   106    40   108 1
   107    40   109 1
   108    42    41 1
   109    41   110 1
   110    41   111 1
   111    42    43 1
   112    42   112 1
   113    42   113 1
   114    44    43 1
   115    43   114 1
   116    43   115 1
   117    45    44 1
   118    44   116 1
   119    44   117 1
   120    46    45 1
   121    45   118 1
   122    45   119 1
   123    47    46 1
   124    46   120 1
   125    46   121 1
   126    47   122 1
   127    47   123 1
   128    47   124 1
   129    10   125 1
   130    11   126 1
   131   131     9 1
@<TRIPOS>SUBSTRUCTURE
     1 ENF         1 TEMP              0 ****  ****    0 ROOT
