@<TRIPOS>MOLECULE
molecule
   22    22     1     0     0
SMALL
bcc


@<TRIPOS>ATOM
      1 C10          0.0000     0.0000     0.0000 ca         1 ENG      -0.074000
      2 C15          2.0940     0.0000     1.2140 ca         1 ENG       0.027100
      3 C02          1.3350    -0.2420    -4.9910 c          1 ENG       0.848800
      4 C04          2.0790    -0.1230    -3.7160 ce         1 ENG       0.144900
      5 C06          1.4060    -0.0030    -2.5480 cf         1 ENG      -0.358200
      6 C07          2.1380    -0.0020    -1.2770 c          1 ENG       0.560900
      7 C09          1.3980     0.0000     0.0000 ca         1 ENG      -0.129600
      8 C11         -0.6870     0.0020     1.1940 ca         1 ENG      -0.162000
      9 C12          0.0080    -0.0040     2.3980 ca         1 ENG       0.103100
     10 C14          1.3990    -0.0110     2.4040 ca         1 ENG      -0.154000
     11 O01          2.0060    -0.3620    -6.1530 o          1 ENG      -0.817300
     12 O03          0.1210    -0.2310    -4.9880 o          1 ENG      -0.817300
     13 O05          3.4330    -0.1340    -3.7190 oh         1 ENG      -0.506100
     14 O08          3.3540    -0.0030    -1.2750 o          1 ENG      -0.521100
     15 O13         -0.6730    -0.0030     3.5720 oh         1 ENG      -0.527100
     16 Br16         3.9850    -0.0090     1.2230 br         1 ENG      -0.061100
     17 H1          -0.5420     0.0020    -0.9380 ha         1 ENG       0.164000
     18 H3           0.3230     0.0060    -2.5480 ha         1 ENG       0.153000
     19 H5          -1.7700     0.0040     1.1950 ha         1 ENG       0.137000
     20 H6           1.9360    -0.0130     3.3440 ha         1 ENG       0.142000
     21 H8           3.7520     0.5820    -4.2430 ho         1 ENG       0.431000
     22 H9          -0.7960    -0.8910     3.8650 ho         1 ENG       0.414000
@<TRIPOS>BOND
     1    16     2 1
     2    14     6 2
     3     2    10 ar
     4     2     7 ar
     5    13     4 1
     6    10     9 ar
     7     6     7 1
     8     6     5 1
     9     7     1 ar
    10     9    15 1
    11     9     8 ar
    12     5     4 2
    13     4     3 1
    14     1     8 ar
    15    12     3 1
    16     3    11 1
    17     1    17 1
    18     5    18 1
    19     8    19 1
    20    10    20 1
    21    13    21 1
    22    15    22 1
@<TRIPOS>SUBSTRUCTURE
     1 ENG         1 TEMP              0 ****  ****    0 ROOT
