@<TRIPOS>MOLECULE
molecule
   24    26     1     0     0
SMALL
bcc


@<TRIPOS>ATOM
      1 Cl1          0.0000     0.0000     0.0000 cl         1 ENH      -0.019400
      2 Cl2          1.9610    -0.0010     2.7180 cl         1 ENH      -0.019400
      3 Cl3          5.1880     0.5400     1.8260 cl         1 ENH      -0.070400
      4 Cl           1.8550     0.5420    -2.8030 cl         1 ENH      -0.070400
      5 Cl8          3.4110     2.5630    -0.3520 cl         1 ENH      -0.095900
      6 Cl9          5.3260     0.7390    -1.7490 cl         1 ENH      -0.095900
      7 C11          1.7360     0.0000     0.0000 c2         1 ENH      -0.022300
      8 C12          2.5080     0.0000     1.0700 c2         1 ENH      -0.022300
      9 C5           3.9700    -0.0000     0.6120 c3         1 ENH       0.110600
     10 C            4.1820    -1.4230     0.0090 c3         1 ENH      -0.161200
     11 C9           3.2880    -1.4160    -1.2650 c3         1 ENH      -0.161200
     12 C10          2.6360     0.0020    -1.2710 c3         1 ENH       0.110600
     13 C8           3.8630     0.8540    -0.7030 c3         1 ENH       0.157800
     14 N            2.4300    -2.9340     0.2780 n          1 ENH      -0.484400
     15 C6           2.2140    -2.4290    -0.9410 c          1 ENH       0.705500
     16 O            1.2980    -2.7370    -1.6720 o          1 ENH      -0.554000
     17 C7           3.5030    -2.4370     0.9030 c          1 ENH       0.705500
     18 O1           3.8780    -2.7540     2.0100 o          1 ENH      -0.554000
     19 CN           1.5590    -3.9450     0.8840 c3         1 ENH       0.089300
     20 H1           5.2190    -1.6560    -0.1990 hc         1 ENH       0.131200
     21 H91          3.8350    -1.6430    -2.1720 hc         1 ENH       0.131200
     22 H11          1.3990    -3.7050     1.9280 h1         1 ENH       0.063033
     23 H12          2.0280    -4.9190     0.8050 h1         1 ENH       0.063033
     24 H13          0.6080    -3.9590     0.3660 h1         1 ENH       0.063033
@<TRIPOS>BOND
     1     1     7 1
     2     2     8 1
     3     3     9 1
     4     4    12 1
     5     5    13 1
     6     6    13 1
     7     7     8 2
     8     7    12 1
     9     8     9 1
    10     9    10 1
    11     9    13 1
    12    10    11 1
    13    10    17 1
    14    10    20 1
    15    11    12 1
    16    11    15 1
    17    11    21 1
    18    12    13 1
    19    14    15 1
    20    14    17 1
    21    14    19 1
    22    15    16 2
    23    17    18 2
    24    19    22 1
    25    19    23 1
    26    19    24 1
@<TRIPOS>SUBSTRUCTURE
     1 ENH         1 TEMP              0 ****  ****    0 ROOT
