@<TRIPOS>MOLECULE
molecule
   41    42     1     0     0
SMALL
bcc


@<TRIPOS>ATOM
      1 O2           0.0000     0.0000     0.0000 o          1 ENJ      -0.629100
      2 O1           1.9900     2.9320     0.0290 o          1 ENJ      -0.634200
      3 C6           1.2390     0.0010    -2.3810 c2         1 ENJ       0.096000
      4 C4           3.3070     0.7520    -1.0100 c3         1 ENJ      -0.036500
      5 C3           4.0410     0.7750    -2.3590 ce         1 ENJ      -0.217400
      6 N1           1.8860     0.0180    -3.5880 nh         1 ENJ      -0.518200
      7 C5           1.9940     0.3790    -1.1000 ce         1 ENJ      -0.234400
      8 C2           3.2920     0.3970    -3.6470 c2         1 ENJ       0.098000
      9 C1           1.2180     0.0000     0.0000 c          1 ENJ       0.626900
     10 C1R          1.2350    -0.3090    -4.7000 c3         1 ENJ       0.375300
     11 C2R         -0.0470     0.6160    -4.8800 c3         1 ENJ       0.113100
     12 C3R          0.2400     1.3990    -5.7990 c3         1 ENJ       0.115100
     13 C4R          1.3580     0.6050    -6.7290 c3         1 ENJ       0.089100
     14 C5R          1.9300     1.8130    -7.4430 c3         1 ENJ       0.206400
     15 O2R         -1.2410    -0.2240    -5.2680 oh         1 ENJ      -0.596800
     16 O3R         -0.9650     1.7010    -6.6010 oh         1 ENJ      -0.546800
     17 O4R          2.2370     0.1780    -5.7320 os         1 ENJ      -0.427600
     18 O5R          0.8930     2.5110    -8.0900 os         1 ENJ      -0.571200
     19 P            1.2930     3.7800    -9.0860 p5         1 ENJ       1.277900
     20 S            3.3760     2.4040    -0.2650 s6         1 ENJ       1.025800
     21 S2           2.0990     0.0000     1.5250 sh         1 ENJ      -0.263400
     22 S7           6.6960     1.3100    -2.4290 s          1 ENJ      -0.399400
     23 H1           4.9500     2.7880    -2.9030 h4         1 ENJ       0.078200
     24 H2           0.1610    -0.0980    -2.3460 h4         1 ENJ       0.174000
     25 H3           3.7940     0.0430    -0.3510 h1         1 ENJ       0.148700
     26 H4           3.8580     0.0770    -4.5140 h4         1 ENJ       0.186000
     27 H5           0.9760    -1.3430    -4.8920 h2         1 ENJ       0.068700
     28 H6          -0.2450     1.1650    -3.9670 h1         1 ENJ       0.046700
     29 H7           0.6670     2.3090    -5.3950 h1         1 ENJ       0.086700
     30 H8           1.1780    -0.1990    -7.4330 h1         1 ENJ       0.072700
     31 H9           2.4090     2.4650    -6.7220 h1         1 ENJ       0.014700
     32 H10          2.6590     1.4890    -8.1750 h1         1 ENJ       0.014700
     33 H13         -1.8770    -0.2060    -4.5730 ho         1 ENJ       0.373000
     34 H14         -1.2840     2.5600    -6.3790 ho         1 ENJ       0.396000
     35 H15          1.2590     0.2570     2.5210 hs         1 ENJ       0.133800
     36 O            4.1470     3.6900    -0.4470 o          1 ENJ      -0.634200
     37 O1P          2.1380     4.7730    -8.3220 o          1 ENJ      -0.933500
     38 O21          3.8630     1.4950     0.8390 o          1 ENJ      -0.634200
     39 O2P          2.0740     3.2610   -10.2720 o          1 ENJ      -0.933500
     40 O3P          0.0280     4.4600    -9.5720 o          1 ENJ      -0.933500
     41 C7           5.1760     1.7740    -2.5950 cs         1 ENJ       0.326400
@<TRIPOS>BOND
     1     2    20 1
     2    15    11 1
     3    36    20 1
     4    20    38 1
     5    20     4 1
     6     1     9 2
     7    16    12 1
     8    11    10 1
     9    11    12 1
    10    10     6 1
    11    10    17 1
    12     9     7 1
    13     9    21 1
    14     3     6 1
    15     3     7 2
    16     6     8 1
    17    12    13 1
    18     7     4 1
    19     4     5 1
    20    40    19 1
    21     8     5 2
    22    17    13 1
    23     5    41 1
    24    13    14 1
    25    39    19 1
    26    19    18 1
    27    19    37 1
    28    18    14 1
    29    41    22 2
    30    41    23 1
    31     3    24 1
    32     4    25 1
    33     8    26 1
    34    10    27 1
    35    11    28 1
    36    12    29 1
    37    13    30 1
    38    14    31 1
    39    14    32 1
    40    15    33 1
    41    16    34 1
    42    21    35 1
@<TRIPOS>SUBSTRUCTURE
     1 ENJ         1 TEMP              0 ****  ****    0 ROOT
