@<TRIPOS>MOLECULE
ENL
   21    22     1     0     0
SMALL
bcc


@<TRIPOS>ATOM
      1 O2         -0.0310    0.7110   -0.1120 o         1 ENL     -0.864300
      2 C8          1.1760    0.3210   -0.1040 c         1 ENL      0.935600
      3 O5          1.9080    0.3860   -1.1360 o         1 ENL     -0.864300
      4 C4          1.8500   -0.0380    1.2330 c3        1 ENL     -0.148700
      5 C6          1.0850    0.6110    2.4200 c3        1 ENL      0.127100
      6 C5          2.1060    0.8330    3.5750 c3        1 ENL     -0.114400
      7 O1          0.2980   -0.4830    2.9620 os        1 ENL     -0.406600
      8 C3          2.0660   -1.4850    1.7510 c3        1 ENL     -0.148700
      9 C7          1.6350   -2.7570    0.9980 c         1 ENL      0.935600
     10 O4          0.5800   -3.3660    1.3500 o         1 ENL     -0.864300
     11 O3          2.4500   -3.2560    0.1650 o         1 ENL     -0.864300
     12 C2          1.3880   -1.4240    3.1480 c3        1 ENL      0.127100
     13 C1          2.3200   -0.6040    4.0890 c3        1 ENL     -0.114400
     14 H4          2.8710    0.4320    1.1570 hc        1 ENL      0.013700
     15 H6          0.4100    1.4460    2.1590 h1        1 ENL      0.093700
     16 H5          3.0510    1.2920    3.2080 hc        1 ENL      0.012700
     17 H5A         1.6750    1.4850    4.3690 hc        1 ENL      0.012700
     18 H3          3.1760   -1.6150    1.8900 hc        1 ENL      0.013700
     19 H2          0.9800   -2.3780    3.5280 h1        1 ENL      0.093700
     20 H1          3.3820   -0.9260    4.0030 hc        1 ENL      0.012700
     21 H1A         2.0020   -0.7040    5.1530 hc        1 ENL      0.012700
@<TRIPOS>BOND
     1    1    2 1   
     2    2    3 1   
     3    2    4 1   
     4    4    5 1   
     5    4    8 1   
     6    4   14 1   
     7    5    6 1   
     8    5    7 1   
     9    5   15 1   
    10    6   13 1   
    11    6   16 1   
    12    6   17 1   
    13    7   12 1   
    14    8    9 1   
    15    8   12 1   
    16    8   18 1   
    17    9   10 1   
    18    9   11 1   
    19   12   13 1   
    20   12   19 1   
    21   13   20 1   
    22   13   21 1   
@<TRIPOS>SUBSTRUCTURE
     1 ENL         1 TEMP              0 ****  ****    0 ROOT
