@<TRIPOS>MOLECULE
molecule
   21    22     1     0     0
SMALL
bcc


@<TRIPOS>ATOM
      1 O2           0.0000     0.0000     0.0000 o          1 ENL      -0.850800
      2 C8           1.2080     0.0000     0.0000 c          1 ENL       0.916100
      3 O5           1.8790     0.0040    -1.1620 o          1 ENL      -0.850800
      4 C4           1.9620     0.0000     1.3050 c3         1 ENL      -0.162700
      5 C6           1.1080     0.6530     2.4350 c3         1 ENL       0.135600
      6 C5           2.0880     0.8490     3.6300 c3         1 ENL      -0.121400
      7 O1           0.3210    -0.4930     2.8960 os         1 ENL      -0.383600
      8 C3           2.1670    -1.4460     1.8220 c3         1 ENL      -0.162700
      9 C7           1.5540    -2.4440     0.8730 c          1 ENL       0.916100
     10 O4           0.4000    -2.7750     1.0070 o          1 ENL      -0.850800
     11 O3           2.2910    -2.9640    -0.1210 o          1 ENL      -0.850800
     12 C2           1.4040    -1.4380     3.1810 c3         1 ENL       0.135600
     13 C1           2.2930    -0.5980     4.1470 c3         1 ENL      -0.121400
     14 H4           2.9130     0.5080     1.2010 hc         1 ENL       0.019700
     15 H6           0.5340     1.5260     2.1480 h1         1 ENL       0.079700
     16 H5           1.6400     1.4700     4.3960 hc         1 ENL       0.013450
     17 H5A          3.0260     1.2720     3.2910 hc         1 ENL       0.013450
     18 H3           3.2190    -1.6530     1.9730 hc         1 ENL       0.019700
     19 H2           1.0910    -2.4070     3.5520 h1         1 ENL       0.079700
     20 H1           1.9460    -0.6930     5.1680 hc         1 ENL       0.013450
     21 H1A          3.3330    -0.8910     4.0640 hc         1 ENL       0.013450
@<TRIPOS>BOND
     1     1     2 1
     2     2     3 1
     3     2     4 1
     4     4     5 1
     5     4     8 1
     6     5     6 1
     7     5     7 1
     8     6    13 1
     9     7    12 1
    10     8     9 1
    11     8    12 1
    12     9    10 1
    13     9    11 1
    14    12    13 1
    15     4    14 1
    16     5    15 1
    17     6    16 1
    18     6    17 1
    19     8    18 1
    20    12    19 1
    21    13    20 1
    22    13    21 1
@<TRIPOS>SUBSTRUCTURE
     1 ENL         1 TEMP              0 ****  ****    0 ROOT
