@<TRIPOS>MOLECULE
molecule
   68    72     1     0     0
SMALL
bcc


@<TRIPOS>ATOM
      1 C23          0.0000     0.0000     0.0000 ca         1 ENM      -0.164500
      2 C24          1.3840     0.0000     0.0000 ca         1 ENM       0.155900
      3 F2           2.0610     0.0000    -1.1690 f          1 ENM      -0.134900
      4 C25          2.0760     0.0000     1.2000 ca         1 ENM      -0.208000
      5 C26          1.3820     0.0000     2.3980 ca         1 ENM       0.155900
      6 F1           2.0540     0.0010     3.5690 f          1 ENM      -0.134900
      7 C27         -0.0030    -0.0000     2.3940 ca         1 ENM      -0.164500
      8 C22         -0.6920     0.0000     1.1960 ca         1 ENM      -0.033300
      9 C21         -2.1990    -0.0010     1.1940 c3         1 ENM       0.188700
     10 O03         -2.6760    -1.3470     1.1930 os         1 ENM      -0.431600
     11 C20         -4.1000    -1.4600     1.1910 c3         1 ENM       0.121400
     12 C19         -4.4950    -2.9390     1.1910 c3         1 ENM      -0.061400
     13 C12         -6.0130    -3.0610     1.3440 c3         1 ENM      -0.062000
     14 C13         -6.4480    -2.4330     2.6530 c3         1 ENM      -0.067400
     15 C14         -5.6370    -3.1030     3.7740 c3         1 ENM      -0.084400
     16 C10         -5.8370    -4.6150     3.7790 c3         1 ENM      -0.052700
     17 C05         -4.9530    -5.2540     4.8520 c3         1 ENM      -0.058000
     18 C18         -3.4810    -4.9910     4.5250 c3         1 ENM      -0.092100
     19 C06         -5.2980    -4.6320     6.2070 c3         1 ENM      -0.068400
     20 C01         -4.3700    -5.1970     7.2860 c3         1 ENM      -0.182400
     21 C02         -4.4710    -6.7070     7.2580 c          1 ENM       0.568100
     22 O02         -4.6980    -7.3330     8.2650 o          1 ENM      -0.524100
     23 C03         -4.2790    -7.4090     5.9320 c3         1 ENM      -0.180400
     24 C04         -5.2040    -6.7630     4.8930 c3         1 ENM      -0.051700
     25 C07         -4.9040    -7.3760     3.5230 c3         1 ENM      -0.077400
     26 C08         -5.7970    -6.7330     2.4620 c3         1 ENM      -0.074400
     27 C09         -5.5140    -5.2310     2.4090 c3         1 ENM      -0.062700
     28 C11         -6.4160    -4.5600     1.3900 c3         1 ENM      -0.064700
     29 C15         -6.2090    -4.9830    -0.0680 c3         1 ENM      -0.074400
     30 C16         -6.7810    -3.7780    -0.8630 c3         1 ENM      -0.112400
     31 C17         -6.7010    -2.5530     0.0810 c3         1 ENM       0.149100
     32 O01         -5.9260    -1.5140    -0.5210 oh         1 ENM      -0.601800
     33 H23         -0.5410     0.0000    -0.9380 ha         1 ENM       0.152000
     34 H25          3.1590    -0.0000     1.2010 ha         1 ENM       0.159000
     35 H27         -0.5470    -0.0000     3.3310 ha         1 ENM       0.152000
     36 H211        -2.5620     0.5100     2.0780 h1         1 ENM       0.031700
     37 H212        -2.5590     0.5100     0.3090 h1         1 ENM       0.031700
     38 H201        -4.5020    -0.9790     2.0750 h1         1 ENM       0.045700
     39 H202        -4.4990    -0.9790     0.3060 h1         1 ENM       0.045700
     40 H191        -4.0070    -3.4430     2.0160 hc         1 ENM       0.058700
     41 H192        -4.1880    -3.3940     0.2570 hc         1 ENM       0.058700
     42 H131        -7.5050    -2.6060     2.8100 hc         1 ENM       0.045700
     43 H132        -6.2410    -1.3690     2.6360 hc         1 ENM       0.045700
     44 H141        -5.9570    -2.7020     4.7280 hc         1 ENM       0.049700
     45 H142        -4.5860    -2.8860     3.6280 hc         1 ENM       0.049700
     46 H10         -6.8740    -4.8250     4.0150 hc         1 ENM       0.050700
     47 H181        -3.2660    -5.3400     3.5220 hc         1 ENM       0.040367
     48 H182        -2.8540    -5.5180     5.2330 hc         1 ENM       0.040367
     49 H183        -3.2820    -3.9280     4.5870 hc         1 ENM       0.040367
     50 H061        -6.3260    -4.8670     6.4590 hc         1 ENM       0.050700
     51 H062        -5.1720    -3.5570     6.1520 hc         1 ENM       0.050700
     52 H011        -3.3490    -4.8970     7.0810 hc         1 ENM       0.068700
     53 H012        -4.6760    -4.8300     8.2580 hc         1 ENM       0.068700
     54 H031        -4.5290    -8.4570     6.0380 hc         1 ENM       0.069700
     55 H032        -3.2480    -7.3060     5.6140 hc         1 ENM       0.069700
     56 H04         -6.2370    -6.9520     5.1590 hc         1 ENM       0.058700
     57 H071        -5.0980    -8.4420     3.5570 hc         1 ENM       0.045700
     58 H072        -3.8650    -7.2020     3.2720 hc         1 ENM       0.045700
     59 H081        -5.5830    -7.1740     1.4950 hc         1 ENM       0.044200
     60 H082        -6.8370    -6.8950     2.7180 hc         1 ENM       0.044200
     61 H09         -4.4740    -5.0560     2.1590 hc         1 ENM       0.071700
     62 H11         -7.4560    -4.6640     1.6730 hc         1 ENM       0.058700
     63 H151        -5.1550    -5.1150    -0.2810 hc         1 ENM       0.050700
     64 H152        -6.7680    -5.8850    -0.2870 hc         1 ENM       0.050700
     65 H161        -7.8120    -3.9700    -1.1350 hc         1 ENM       0.051200
     66 H162        -6.1830    -3.6020    -1.7500 hc         1 ENM       0.051200
     67 H17         -7.6970    -2.1980     0.3160 h1         1 ENM       0.036700
     68 HO01        -6.4770    -0.9960    -1.0830 ho         1 ENM       0.395000
@<TRIPOS>BOND
     1     1     8 ar
     2     1     2 ar
     3     1    33 1
     4     2     4 ar
     5     2     3 1
     6     4     5 ar
     7     4    34 1
     8     5     7 ar
     9     5     6 1
    10     7     8 ar
    11     7    35 1
    12     8     9 1
    13     9    10 1
    14     9    36 1
    15     9    37 1
    16    10    11 1
    17    11    12 1
    18    11    38 1
    19    11    39 1
    20    12    13 1
    21    12    40 1
    22    12    41 1
    23    13    31 1
    24    13    28 1
    25    13    14 1
    26    14    15 1
    27    14    42 1
    28    14    43 1
    29    15    16 1
    30    15    44 1
    31    15    45 1
    32    16    27 1
    33    16    17 1
    34    16    46 1
    35    17    24 1
    36    17    19 1
    37    17    18 1
    38    18    47 1
    39    18    48 1
    40    18    49 1
    41    19    20 1
    42    19    50 1
    43    19    51 1
    44    20    21 1
    45    20    52 1
    46    20    53 1
    47    21    22 2
    48    21    23 1
    49    23    24 1
    50    23    54 1
    51    23    55 1
    52    24    25 1
    53    24    56 1
    54    25    26 1
    55    25    57 1
    56    25    58 1
    57    26    27 1
    58    26    59 1
    59    26    60 1
    60    27    28 1
    61    27    61 1
    62    28    29 1
    63    28    62 1
    64    29    30 1
    65    29    63 1
    66    29    64 1
    67    30    31 1
    68    30    65 1
    69    30    66 1
    70    31    32 1
    71    31    67 1
    72    32    68 1
@<TRIPOS>SUBSTRUCTURE
     1 ENM         1 TEMP              0 ****  ****    0 ROOT
