@<TRIPOS>MOLECULE
ENM
   68    72     1     0     0
SMALL
bcc


@<TRIPOS>ATOM
      1 C23         0.0650   -0.8190    0.3040 ca        1 ENM     -0.171000
      2 C24         1.4100   -0.7190   -0.0990 ca        1 ENM      0.149900
      3 F2          2.0040   -1.7690   -0.7150 f         1 ENM     -0.136400
      4 C25         2.1460    0.4540    0.1270 ca        1 ENM     -0.209000
      5 C26         1.5130    1.5320    0.7680 ca        1 ENM      0.149900
      6 F1          2.2070    2.6730    0.9960 f         1 ENM     -0.136400
      7 C27         0.1710    1.4410    1.1760 ca        1 ENM     -0.171000
      8 C22        -0.5430    0.2630    0.9380 ca        1 ENM     -0.033300
      9 C21        -1.9720    0.2120    1.3750 c3        1 ENM      0.172700
     10 O03        -2.4620   -1.1170    1.2200 os        1 ENM     -0.429600
     11 C20        -3.8230   -1.2340    1.6500 c3        1 ENM      0.131400
     12 C19        -4.2500   -2.6460    1.2840 c3        1 ENM     -0.061400
     13 C12        -5.7370   -2.9130    1.5000 c3        1 ENM     -0.039000
     14 C13        -6.2220   -2.4230    2.8530 c3        1 ENM     -0.066400
     15 C14        -5.5440   -3.2040    3.9690 c3        1 ENM     -0.077400
     16 C10        -5.7590   -4.7090    3.8600 c3        1 ENM     -0.048700
     17 C05        -5.0680   -5.5000    4.9920 c3        1 ENM     -0.039000
     18 C18        -3.5620   -5.2930    4.9750 c3        1 ENM     -0.087100
     19 C06        -5.6230   -5.0390    6.3450 c3        1 ENM     -0.068400
     20 C01        -5.1520   -5.8840    7.5080 c3        1 ENM     -0.182400
     21 C02        -5.3280   -7.3570    7.2750 c         1 ENM      0.571100
     22 O02        -5.7580   -8.1110    8.1530 o         1 ENM     -0.534100
     23 C03        -4.9130   -7.8630    5.9240 c3        1 ENM     -0.179400
     24 C04        -5.4540   -6.9820    4.8120 c3        1 ENM     -0.050700
     25 C07        -5.0330   -7.5190    3.4550 c3        1 ENM     -0.073400
     26 C08        -5.6760   -6.7170    2.3440 c3        1 ENM     -0.074400
     27 C09        -5.3440   -5.2390    2.4750 c3        1 ENM     -0.048700
     28 C11        -6.0800   -4.4280    1.4300 c3        1 ENM     -0.066700
     29 C15        -5.9220   -4.7770   -0.0440 c3        1 ENM     -0.070400
     30 C16        -6.4020   -3.5250   -0.7820 c3        1 ENM     -0.119400
     31 C17        -6.5520   -2.4100    0.2780 c3        1 ENM      0.141100
     32 O01        -6.0660   -1.1620   -0.1760 oh        1 ENM     -0.596800
     33 H23        -0.4990   -1.7470    0.1200 ha        1 ENM      0.162500
     34 H25         3.1960    0.5290   -0.1900 ha        1 ENM      0.164000
     35 H27        -0.3040    2.2960    1.6770 ha        1 ENM      0.162500
     36 H211       -2.5870    0.9130    0.7440 h1        1 ENM      0.042700
     37 H212       -2.0580    0.5210    2.4530 h1        1 ENM      0.042700
     38 H201       -4.4540   -0.4640    1.1340 h1        1 ENM      0.040700
     39 H202       -3.8620   -1.0690    2.7610 h1        1 ENM      0.040700
     40 H191       -3.6320   -3.3590    1.8890 hc        1 ENM      0.056200
     41 H192       -4.0030   -2.8230    0.2030 hc        1 ENM      0.056200
     42 H131       -7.3340   -2.5570    2.9220 hc        1 ENM      0.045200
     43 H132       -6.0130   -1.3290    2.9720 hc        1 ENM      0.045200
     44 H141       -5.9570   -2.8430    4.9470 hc        1 ENM      0.045200
     45 H142       -4.4460   -2.9770    3.9580 hc        1 ENM      0.045200
     46 H10        -6.8680   -4.8950    3.9660 hc        1 ENM      0.045700
     47 H181       -3.0680   -5.9270    5.7500 hc        1 ENM      0.037700
     48 H182       -3.1260   -5.5560    3.9830 hc        1 ENM      0.037700
     49 H183       -3.3170   -4.2260    5.1970 hc        1 ENM      0.037700
     50 H061       -6.7440   -5.0570    6.3040 hc        1 ENM      0.047700
     51 H062       -5.3080   -3.9790    6.5350 hc        1 ENM      0.047700
     52 H011       -5.7060   -5.5820    8.4370 hc        1 ENM      0.070200
     53 H012       -4.0590   -5.7010    7.6980 hc        1 ENM      0.070200
     54 H031       -5.2850   -8.9130    5.7830 hc        1 ENM      0.070700
     55 H032       -3.7920   -7.8980    5.8880 hc        1 ENM      0.070700
     56 H04        -6.5820   -7.0320    4.8620 hc        1 ENM      0.052700
     57 H071       -5.3430   -8.5940    3.3690 hc        1 ENM      0.044700
     58 H072       -3.9170   -7.4840    3.3590 hc        1 ENM      0.044700
     59 H081       -6.7880   -6.8590    2.3720 hc        1 ENM      0.043200
     60 H082       -5.3150   -7.0890    1.3490 hc        1 ENM      0.043200
     61 H09        -4.2340   -5.1220    2.3430 hc        1 ENM      0.059700
     62 H11        -7.1830   -4.5240    1.6670 hc        1 ENM      0.046700
     63 H151       -6.5310   -5.6720   -0.3170 hc        1 ENM      0.047700
     64 H152       -4.8540   -4.9980   -0.2880 hc        1 ENM      0.047700
     65 H161       -5.6620   -3.2150   -1.5600 hc        1 ENM      0.049700
     66 H162       -7.3810   -3.7090   -1.2870 hc        1 ENM      0.049700
     67 H17        -7.6330   -2.2930    0.5710 h1        1 ENM      0.035700
     68 HO01       -6.5100   -0.9840   -1.0140 ho        1 ENM      0.402000
@<TRIPOS>BOND
     1    1    2 ar  
     2    1    8 ar  
     3    1   33 1   
     4    2    3 1   
     5    2    4 ar  
     6    4    5 ar  
     7    4   34 1   
     8    5    6 1   
     9    5    7 ar  
    10    7    8 ar  
    11    7   35 1   
    12    8    9 1   
    13    9   10 1   
    14    9   36 1   
    15    9   37 1   
    16   10   11 1   
    17   11   12 1   
    18   11   38 1   
    19   11   39 1   
    20   12   13 1   
    21   12   40 1   
    22   12   41 1   
    23   13   14 1   
    24   13   28 1   
    25   13   31 1   
    26   14   15 1   
    27   14   42 1   
    28   14   43 1   
    29   15   16 1   
    30   15   44 1   
    31   15   45 1   
    32   16   17 1   
    33   16   27 1   
    34   16   46 1   
    35   17   18 1   
    36   17   19 1   
    37   17   24 1   
    38   18   47 1   
    39   18   48 1   
    40   18   49 1   
    41   19   20 1   
    42   19   50 1   
    43   19   51 1   
    44   20   21 1   
    45   20   52 1   
    46   20   53 1   
    47   21   22 2   
    48   21   23 1   
    49   23   24 1   
    50   23   54 1   
    51   23   55 1   
    52   24   25 1   
    53   24   56 1   
    54   25   26 1   
    55   25   57 1   
    56   25   58 1   
    57   26   27 1   
    58   26   59 1   
    59   26   60 1   
    60   27   28 1   
    61   27   61 1   
    62   28   29 1   
    63   28   62 1   
    64   29   30 1   
    65   29   63 1   
    66   29   64 1   
    67   30   31 1   
    68   30   65 1   
    69   30   66 1   
    70   31   32 1   
    71   31   67 1   
    72   32   68 1   
@<TRIPOS>SUBSTRUCTURE
     1 ENM         1 TEMP              0 ****  ****    0 ROOT
