@<TRIPOS>MOLECULE
ENO
   20    19     1     0     0
SMALL
bcc


@<TRIPOS>ATOM
      1 O4          0.0880    0.4000    0.2840 o         1 ENO     -0.349000
      2 C9         -0.7090    0.9120   -2.5110 c2        1 ENO     -0.033000
      3 C8         -1.0750    1.6510   -3.5690 c2        1 ENO     -0.314000
      4 C7         -0.6800    1.4980   -4.9590 c1        1 ENO      0.026000
      5 C6         -0.2610   -2.4420   -3.7770 c2        1 ENO     -0.175000
      6 C5         -0.0220   -1.3280   -3.1580 c1        1 ENO     -0.160000
      7 C4          0.2230   -0.2150   -2.5090 c2        1 ENO     -0.045000
      8 C3          1.4430   -0.0480   -1.6670 c3        1 ENO     -0.195000
      9 C2          1.2120    0.2270   -0.1970 c2        1 ENO      0.183000
     10 C1          2.5340    0.2880    0.5950 c2        1 ENO      0.329000
     11 O2          2.9390   -0.7830    1.1130 o         1 ENO     -0.539000
     12 O1          3.1190    1.4020    0.6150 o         1 ENO     -0.539000
     13 H9         -1.8090    2.4660   -3.4300 ha        1 ENO      0.146000
     14 H8         -1.1140    1.1260   -1.4980 ha        1 ENO      0.174000
     15 H6          0.0840   -2.6310   -4.8040 ha        1 ENO      0.123500
     16 H5         -0.8210   -3.2630   -3.3080 ha        1 ENO      0.123500
     17 HO3         1.1200    0.8980   -4.5600 ho        1 ENO      0.166000
     18 H31         2.0850   -0.9690   -1.7250 hc        1 ENO      0.119500
     19 H32         2.0480    0.8150   -2.0610 hc        1 ENO      0.119500
     20 O3          0.5070    1.1190   -5.2990 oh        1 ENO     -0.160000
@<TRIPOS>BOND
     1    1    9 1   
     2    2    3 1   
     3    2    7 1   
     4    2   14 1   
     5    3    4 1   
     6    3   13 1   
     7    4   20 1   
     8    5    6 1   
     9    5   15 1   
    10    5   16 1   
    11    6    7 1   
    12    7    8 1   
    13    8    9 1   
    14    8   18 1   
    15    8   19 1   
    16    9   10 1   
    17   10   11 1   
    18   10   12 1   
    19   17   20 1   
@<TRIPOS>SUBSTRUCTURE
     1 ENO         1 TEMP              0 ****  ****    0 ROOT
