@<TRIPOS>MOLECULE
molecule
   20    20     1     0     0
SMALL
bcc


@<TRIPOS>ATOM
      1 O4           0.0000     0.0000     0.0000 o          1 ENO      -0.533100
      2 C9           0.5320     1.1960    -2.9740 ca         1 ENO      -0.110000
      3 C8          -0.3680     1.1980    -4.0240 ca         1 ENO      -0.154000
      4 C7          -0.8180    -0.0020    -4.5520 ca         1 ENO       0.074100
      5 C6          -0.3670    -1.2030    -4.0230 ca         1 ENO      -0.154000
      6 C5           0.5360    -1.1990    -2.9770 ca         1 ENO      -0.110000
      7 C4           0.9800    -0.0020    -2.4500 ca         1 ENO      -0.047300
      8 C3           1.9590    -0.0020    -1.3050 c3         1 ENO      -0.151100
      9 C2           1.2080     0.0000     0.0000 c          1 ENO       0.471100
     10 C1           1.9540     0.0000     1.2900 c          1 ENO       0.807600
     11 O2           3.1660    -0.0010     1.2900 o          1 ENO      -0.812300
     12 O1           1.2820     0.0000     2.4560 o          1 ENO      -0.812300
     13 H9           0.8830     2.1330    -2.5600 ha         1 ENO       0.134000
     14 H8          -0.7190     2.1370    -4.4350 ha         1 ENO       0.125000
     15 H6          -0.7160    -2.1420    -4.4350 ha         1 ENO       0.125000
     16 H5           0.8890    -2.1370    -2.5640 ha         1 ENO       0.134000
     17 HO3         -1.2320    -0.0020    -6.4010 ho         1 ENO       0.402000
     18 H31          2.5810    -0.8870    -1.3620 hc         1 ENO       0.069700
     19 H32          2.5830     0.8820    -1.3640 hc         1 ENO       0.069700
     20 O3          -1.7020    -0.0030    -5.5840 oh         1 ENO      -0.529100
@<TRIPOS>BOND
     1     1     9 2
     2     2     3 ar
     3     2     7 ar
     4     2    13 1
     5     3     4 ar
     6     3    14 1
     7     4     5 ar
     8     4    20 1
     9     5     6 ar
    10     5    15 1
    11     6     7 ar
    12     6    16 1
    13     7     8 1
    14    20    17 1
    15     8     9 1
    16     8    18 1
    17     8    19 1
    18     9    10 1
    19    10    11 1
    20    10    12 1
@<TRIPOS>SUBSTRUCTURE
     1 ENO         1 TEMP              0 ****  ****    0 ROOT
