@<TRIPOS>MOLECULE
ENS
   66    68     1     0     0
SMALL
bcc


@<TRIPOS>ATOM
      1 C1         -4.2500   -1.5610    2.1690 cg        1 ENS      0.174500
      2 C2          1.2530    2.1260    1.8890 ca        1 ENS     -0.149000
      3 C3          2.1080    2.4340    2.9400 ca        1 ENS     -0.045000
      4 C4          0.2650    1.1410    2.0080 ca        1 ENS     -0.118000
      5 C5          2.6470    1.8010    5.4210 cc        1 ENS     -0.058800
      6 C6          2.0370    0.8680    6.2620 cd        1 ENS     -0.081100
      7 C7          1.9580    1.7600    4.1480 ca        1 ENS     -0.077800
      8 C8          0.9240    0.7560    4.2970 ca        1 ENS     -0.023200
      9 C9          0.0790    0.4360    3.2060 ca        1 ENS     -0.103200
     10 C10        -2.8010    0.6120    7.2360 c         1 ENS      0.655900
     11 C11        -2.8640   -1.6730    2.4300 ce        1 ENS     -0.144900
     12 C12        -2.1320   -0.5790    2.8770 c2        1 ENS      0.155800
     13 C13        -2.2390   -2.9870    2.2200 c         1 ENS      0.664300
     14 C14        -1.1420    3.4660    6.8450 c         1 ENS      0.653100
     15 C15        -4.7850    2.4920    5.1750 c3        1 ENS     -0.066400
     16 C16        -4.5150    3.3590    6.3900 c3        1 ENS     -0.116400
     17 C17         1.6330    5.9240    6.8070 c3        1 ENS     -0.089900
     18 C18         1.4520    5.6970    8.3050 c3        1 ENS     -0.089900
     19 C19        -3.7800    2.6830    4.0400 c3        1 ENS     -0.201700
     20 C20        -4.2130    2.5640    7.6640 c3        1 ENS      0.084000
     21 C21         0.4960    5.1670    6.1050 c3        1 ENS      0.085500
     22 C22         0.2500    4.7520    8.4650 c3        1 ENS      0.085500
     23 C23        -2.8780    1.4980    3.9580 c2        1 ENS      0.452200
     24 C24        -2.5020   -5.1940    1.3800 c3        1 ENS      0.124700
     25 N26        -5.3920   -1.4920    1.9530 n1        1 ENS     -0.306800
     26 N27         1.0040    0.2190    5.5800 na        1 ENS     -0.165400
     27 N28        -2.9270    1.9050    7.7070 n         1 ENS     -0.464800
     28 N29        -0.2610    4.4680    7.1350 n         1 ENS     -0.445800
     29 N30        -0.8410   -0.6350    3.3440 nh        1 ENS     -0.206400
     30 N31        -2.8470    0.6900    2.9230 nh        1 ENS     -0.215300
     31 O33        -1.0920   -3.3290    2.5360 o         1 ENS     -0.553000
     32 O34        -1.4430    3.2040    5.6530 o         1 ENS     -0.702100
     33 O35        -3.0530   -3.8890    1.6100 os        1 ENS     -0.403900
     34 CL36        3.9440    2.7770    5.8000 cl        1 ENS     -0.037400
     35 H2          1.3630    2.6500    0.9260 ha        1 ENS      0.152000
     36 H3          2.9000    3.1910    2.8230 ha        1 ENS      0.160000
     37 H4         -0.3550    0.9060    1.1290 ha        1 ENS      0.134000
     38 H6          2.2810    0.5990    7.2930 h4        1 ENS      0.189000
     39 H15        -4.8270    1.4110    5.4770 hc        1 ENS      0.060700
     40 H15A       -5.8010    2.7470    4.7660 hc        1 ENS      0.060700
     41 H16        -5.4300    3.9760    6.6040 hc        1 ENS      0.075700
     42 H16A       -3.6740    4.0750    6.1890 hc        1 ENS      0.075700
     43 H17         2.6230    5.5340    6.4630 hc        1 ENS      0.065950
     44 H17A        1.5850    7.0120    6.5570 hc        1 ENS      0.065950
     45 H18         2.3660    5.2380    8.7550 hc        1 ENS      0.065950
     46 H18A        1.2550    6.6620    8.8350 hc        1 ENS      0.065950
     47 H19        -4.3270    2.8780    3.0790 hc        1 ENS      0.118700
     48 H19A       -3.1160    3.5790    4.2380 hc        1 ENS      0.118700
     49 H20        -5.0190    1.7880    7.8140 h1        1 ENS      0.069700
     50 H20A       -4.2660    3.2790    8.5370 h1        1 ENS      0.069700
     51 H21        -0.1910    5.8740    5.5650 h1        1 ENS      0.054700
     52 H21A        0.8940    4.4270    5.3570 h1        1 ENS      0.054700
     53 H22        -0.5590    5.2370    9.0790 h1        1 ENS      0.054700
     54 H22A        0.5560    3.7990    8.9790 h1        1 ENS      0.054700
     55 H23        -3.7620    0.0480    7.1680 h5        1 ENS      0.048200
     56 H24        -3.3440   -5.7370    0.8820 h1        1 ENS      0.067367
     57 H24A       -2.2220   -5.6630    2.3530 h1        1 ENS      0.067367
     58 H24B       -1.6090   -5.1140    0.7150 h1        1 ENS      0.067367
     59 H25        -0.9580    1.9930    8.4030 h1        1 ENS      0.093200
     60 H25A       -2.0340    3.4150    8.8410 h1        1 ENS      0.093200
     61 HN27        0.3190   -0.3590    6.0040 hn        1 ENS      0.330700
     62 HN31       -2.2110    1.3060    4.8460 h4        1 ENS      0.122800
     63 H29        -0.4240   -1.5580    3.3660 hn        1 ENS      0.350700
     64 C25        -1.7620    2.6910    8.0190 c3        1 ENS      0.017000
     65 H312       -3.4210    0.8620    2.1090 hn        1 ENS      0.335700
     66 O32        -1.7050    0.1000    6.9420 o         1 ENS     -0.633100
@<TRIPOS>BOND
     1    1   11 1   
     2    1   25 3   
     3    2    3 ar  
     4    2    4 ar  
     5    2   35 1   
     6    3    7 ar  
     7    3   36 1   
     8    4    9 ar  
     9    4   37 1   
    10    5    6 2   
    11    5    7 1   
    12    5   34 1   
    13    6   26 1   
    14    6   38 1   
    15    7    8 ar  
    16    8    9 ar  
    17    8   26 1   
    18    9   29 1   
    19   10   27 1   
    20   10   55 1   
    21   10   66 2   
    22   11   12 2   
    23   11   13 1   
    24   12   29 1   
    25   12   30 1   
    26   13   31 2   
    27   13   33 1   
    28   14   28 1   
    29   14   32 2   
    30   14   64 1   
    31   15   16 1   
    32   15   19 1   
    33   15   39 1   
    34   15   40 1   
    35   16   20 1   
    36   16   41 1   
    37   16   42 1   
    38   17   18 1   
    39   17   21 1   
    40   17   43 1   
    41   17   44 1   
    42   18   22 1   
    43   18   45 1   
    44   18   46 1   
    45   19   23 1   
    46   19   47 1   
    47   19   48 1   
    48   20   27 1   
    49   20   49 1   
    50   20   50 1   
    51   21   28 1   
    52   21   51 1   
    53   21   52 1   
    54   22   28 1   
    55   22   53 1   
    56   22   54 1   
    57   23   30 2   
    58   23   62 1   
    59   24   33 1   
    60   24   56 1   
    61   24   57 1   
    62   24   58 1   
    63   26   61 1   
    64   27   64 1   
    65   29   63 1   
    66   30   65 1   
    67   59   64 1   
    68   60   64 1   
@<TRIPOS>SUBSTRUCTURE
     1 ENS         1 TEMP              0 ****  ****    0 ROOT
