@<TRIPOS>MOLECULE
molecule
   65    68     1     0     0
SMALL
bcc


@<TRIPOS>ATOM
      1 C1          -4.3220    -0.9300     3.2960 cg         1 ENS       0.233500
      2 C2           0.0000     0.0000     0.0000 ca         1 ENS      -0.137000
      3 C3           1.3660     0.0000     0.0000 ca         1 ENS      -0.117000
      4 C4          -0.7060     0.0020     1.1950 ca         1 ENS      -0.195000
      5 C5           3.4850    -0.0010     1.5660 cc         1 ENS      -0.039800
      6 C6           3.5540    -0.0000     2.9080 cd         1 ENS      -0.063100
      7 C7           2.0640     0.0000     1.2110 ca         1 ENS      -0.043800
      8 C8           1.3590     0.0020     2.4260 ca         1 ENS      -0.099200
      9 C9          -0.0380     0.0040     2.4060 ca         1 ENS       0.216600
     10 C10         -1.2910     2.6950     5.1280 c          1 ENS       0.672500
     11 C11         -2.9020    -1.0440     3.4390 ce         1 ENS      -0.151900
     12 C12         -2.1190     0.1050     3.5840 c2         1 ENS       0.440000
     13 C13         -2.2900    -2.3220     3.4340 c          1 ENS       0.668300
     14 C14         -1.5310     4.1760     7.9600 c          1 ENS       0.641100
     15 C15         -4.1660     3.5720     4.0430 c3         1 ENS      -0.495400
     16 C16         -4.2000     3.5310     5.5600 c3         1 ENS      -0.144400
     17 C17          0.1140     5.9700    10.7110 c3         1 ENS      -0.188400
     18 C18          0.0190     4.5550    11.3400 c3         1 ENS      -0.188400
     19 C19         -2.7760     3.7620     3.4650 c3         1 ENS      -0.045400
     20 C20         -3.4910     2.2820     6.0880 c3         1 ENS      -0.354000
     21 C21         -1.0460     5.9350     9.6870 c3         1 ENS      -0.086500
     22 C22         -0.4090     3.6750    10.1460 c3         1 ENS      -0.086500
     23 C23         -1.8980     2.5400     3.7490 c3         1 ENS       0.124500
     24 C24         -2.3460    -4.6780     3.1950 c3         1 ENS       0.106700
     25 N26         -5.4500    -0.8330     3.2010 n1         1 ENS      -0.376800
     26 N27          2.2920     0.0020     3.4400 na         1 ENS      -0.170400
     27 N28         -2.0540     2.5730     6.2150 n          1 ENS      -0.341800
     28 N29         -1.0400     4.5590     9.1560 n          1 ENS      -0.370800
     29 N30         -0.7580     0.0060     3.6070 nu         1 ENS      -0.717400
     30 N31         -2.7160     1.3260     3.7050 nu         1 ENS      -0.736000
     31 O32         -0.1050     2.9260     5.2440 o          1 ENS      -0.589500
     32 O33         -1.0970    -2.4260     3.6530 o          1 ENS      -0.561000
     33 O34         -2.0330     4.9960     7.2200 o          1 ENS      -0.569100
     34 O35         -3.0280    -3.4230     3.1840 os         1 ENS      -0.376900
     35 Cl36         4.8250    -0.0030     0.4630 cl         1 ENS      -0.084400
     36 H2          -0.5370    -0.1430    -0.9300 ha         1 ENS       0.135000
     37 H3           1.6510     0.2540    -1.0140 ha         1 ENS       0.142000
     38 H4          -1.7510    -0.1970     0.9890 ha         1 ENS       0.153000
     39 H6           4.4410     0.0200     3.5310 h4         1 ENS       0.175000
     40 H15         -3.2560     4.1520     3.9450 hc         1 ENS       0.164700
     41 H15A        -4.8410     3.8100     3.2300 hc         1 ENS       0.164700
     42 H16         -4.4560     2.4790     5.5710 hc         1 ENS       0.131700
     43 H16A        -5.1830     3.9460     5.7470 hc         1 ENS       0.131700
     44 H17          0.9650     6.3630    11.2540 hc         1 ENS       0.085450
     45 H17A        -0.7220     6.5780    11.0350 hc         1 ENS       0.085450
     46 H18          0.1880     4.7610    12.3890 hc         1 ENS       0.085450
     47 H18A         0.6620     3.7210    11.0850 hc         1 ENS       0.085450
     48 H19         -2.6690     4.7890     3.1360 hc         1 ENS       0.085700
     49 H19A        -3.1350     3.4860     2.4820 hc         1 ENS       0.085700
     50 H20         -4.0160     1.5490     6.6880 h1         1 ENS       0.229200
     51 H20A        -2.6930     2.4720     6.7950 h1         1 ENS       0.229200
     52 H21         -1.4270     6.9480     9.7330 h1         1 ENS       0.135700
     53 H21A        -0.6640     5.4430     8.8000 h1         1 ENS       0.135700
     54 H22         -1.4100     3.2590    10.1230 h1         1 ENS       0.135700
     55 H22A         0.3940     3.0640     9.7530 h1         1 ENS       0.135700
     56 H23         -1.1080     2.4810     3.0100 h1         1 ENS       0.110700
     57 H24         -2.6040    -5.2250     2.2960 h1         1 ENS       0.042367
     58 H24A        -1.2720    -4.7060     3.0530 h1         1 ENS       0.042367
     59 H24B        -2.4830    -5.5320     3.8470 h1         1 ENS       0.042367
     60 H25         -1.3760     1.9620     8.3040 h1         1 ENS       0.153700
     61 H25A        -0.8210     2.4420     6.7150 h1         1 ENS       0.153700
     62 HN27         1.9070    -0.2940     4.3150 hn         1 ENS       0.300700
     63 HN31        -2.8340     1.9780     4.4550 hn         1 ENS       0.528800
     64 H29         -0.4190     0.1610     4.5350 hn         1 ENS       0.445800
     65 C25         -1.4570     2.7300     7.5440 c3         1 ENS      -0.301000
@<TRIPOS>BOND
     1     1    11 1
     2     1    25 3
     3     2     3 ar
     4     2     4 ar
     5     2    36 1
     6     3     7 ar
     7     3    37 1
     8     4     9 ar
     9     4    38 1
    10     5     6 2
    11     5     7 1
    12     5    35 1
    13     6    26 1
    14     6    39 1
    15     7     8 ar
    16     8     9 ar
    17     8    26 1
    18     9    29 1
    19    10    23 1
    20    10    27 1
    21    10    31 2
    22    11    12 2
    23    11    13 1
    24    12    29 1
    25    12    30 1
    26    13    32 2
    27    13    34 1
    28    14    65 1
    29    14    28 1
    30    14    33 2
    31    15    16 1
    32    15    19 1
    33    15    40 1
    34    15    41 1
    35    16    20 1
    36    16    42 1
    37    16    43 1
    38    17    18 1
    39    17    21 1
    40    17    44 1
    41    17    45 1
    42    18    22 1
    43    18    46 1
    44    18    47 1
    45    19    23 1
    46    19    48 1
    47    19    49 1
    48    20    27 1
    49    20    50 1
    50    20    51 1
    51    21    28 1
    52    21    52 1
    53    21    53 1
    54    22    28 1
    55    22    54 1
    56    22    55 1
    57    23    30 1
    58    23    56 1
    59    24    34 1
    60    24    57 1
    61    24    58 1
    62    24    59 1
    63    65    27 1
    64    65    60 1
    65    65    61 1
    66    26    62 1
    67    30    63 1
    68    29    64 1
@<TRIPOS>SUBSTRUCTURE
     1 ENS         1 TEMP              0 ****  ****    0 ROOT
