@<TRIPOS>MOLECULE
molecule
   48    49     1     0     0
SMALL
bcc


@<TRIPOS>ATOM
      1 O6           0.0000     0.0000     0.0000 o          1 ENT      -0.693867
      2 S1           1.5170     0.0000     0.0000 s6         1 ENT       1.335700
      3 O4           2.2020     0.0000     1.3210 o          1 ENT      -0.693867
      4 O5           2.1440    -0.7550    -1.1250 o          1 ENT      -0.693867
      5 N1           1.7220     1.5320    -0.4410 nu         1 ENT      -0.795500
      6 C5           2.8750     2.2240    -0.6070 ca         1 ENT       0.225600
      7 C4           3.5420     2.8000     0.4810 ca         1 ENT      -0.130000
      8 C1           4.7180     3.5340     0.3280 ca         1 ENT      -0.115000
      9 C2           3.3340     2.3640    -1.9090 ca         1 ENT      -0.145000
     10 C6           4.4960     3.1160    -2.0570 ca         1 ENT      -0.115300
     11 C8           4.9510     3.2840    -3.4950 c3         1 ENT       0.174300
     12 N2           6.0010     4.3080    -3.6370 n          1 ENT      -0.456800
     13 C9           6.3540     5.1920    -2.5120 c3         1 ENT       0.033700
     14 C10          5.4720     6.4090    -2.3580 c          1 ENT       0.663100
     15 O3           5.5260     6.9740    -1.2830 o          1 ENT      -0.622100
     16 N3           4.6590     6.8710    -3.3220 ns         1 ENT      -0.571900
     17 C16          3.7700     8.0290    -3.2690 c3         1 ENT       0.114300
     18 C7           6.4550     4.4740    -1.1690 c3         1 ENT      -0.024100
     19 C3           5.1850     3.6800    -0.9730 ca         1 ENT      -0.113300
     20 C11          6.6970     4.4700    -4.7730 c          1 ENT       0.731100
     21 O1           6.4960     3.7820    -5.7770 o          1 ENT      -0.573000
     22 O2           7.7610     5.4780    -4.7900 os         1 ENT      -0.436900
     23 C12          8.9990     5.0180    -5.3590 c3         1 ENT       0.153800
     24 C15         10.0570     4.6140    -4.3540 c3         1 ENT      -0.104433
     25 C14          8.8950     3.8090    -6.2840 c3         1 ENT      -0.104433
     26 C13          9.6700     6.1420    -6.1170 c3         1 ENT      -0.104433
     27 HN1          0.8820     2.0460    -0.6170 hn         1 ENT       0.438800
     28 H4           3.1300     2.6720     1.4750 ha         1 ENT       0.153000
     29 H1           5.2300     3.9790     1.1730 ha         1 ENT       0.131000
     30 H2           3.0620     1.6330    -2.6610 ha         1 ENT       0.168000
     31 H81          4.1000     3.5710    -4.0990 h1         1 ENT       0.062700
     32 H82          5.3380     2.3370    -3.8510 h1         1 ENT       0.062700
     33 H9           7.3480     5.5620    -2.7290 h1         1 ENT       0.088700
     34 HN3          4.6640     6.3610    -4.1820 hn         1 ENT       0.304500
     35 H161         3.2600     8.1370    -4.2190 h1         1 ENT       0.038033
     36 H162         3.0390     7.8880    -2.4810 h1         1 ENT       0.038033
     37 H163         4.3500     8.9220    -3.0670 h1         1 ENT       0.038033
     38 H71          6.5380     5.2100    -0.3790 hc         1 ENT       0.072700
     39 H72          7.2980     3.7940    -1.1930 hc         1 ENT       0.072700
     40 H151         9.7350     3.7210    -3.8310 hc         1 ENT       0.043811
     41 H152        10.9880     4.4140    -4.8710 hc         1 ENT       0.043811
     42 H153        10.2040     5.4170    -3.6420 hc         1 ENT       0.043811
     43 H141         9.8640     3.6070    -6.7240 hc         1 ENT       0.043811
     44 H142         8.1780     4.0160    -7.0690 hc         1 ENT       0.043811
     45 H143         8.5690     2.9470    -5.7160 hc         1 ENT       0.043811
     46 H131         9.0110     6.4920    -6.9020 hc         1 ENT       0.043811
     47 H132         9.8860     6.9570    -5.4370 hc         1 ENT       0.043811
     48 H133        10.5940     5.7820    -6.5540 hc         1 ENT       0.043811
@<TRIPOS>BOND
     1     1     2 1
     2     2     3 1
     3     2     4 1
     4     2     5 1
     5     5     6 1
     6     5    27 1
     7     6     7 ar
     8     6     9 ar
     9     7     8 ar
    10     7    28 1
    11     8    19 ar
    12     8    29 1
    13     9    10 ar
    14     9    30 1
    15    10    11 1
    16    10    19 ar
    17    11    12 1
    18    11    31 1
    19    11    32 1
    20    12    13 1
    21    12    20 1
    22    13    14 1
    23    13    18 1
    24    13    33 1
    25    14    15 2
    26    14    16 1
    27    16    17 1
    28    16    34 1
    29    17    35 1
    30    17    36 1
    31    17    37 1
    32    18    19 1
    33    18    38 1
    34    18    39 1
    35    20    21 2
    36    20    22 1
    37    22    23 1
    38    23    24 1
    39    23    25 1
    40    23    26 1
    41    24    40 1
    42    24    41 1
    43    24    42 1
    44    25    43 1
    45    25    44 1
    46    25    45 1
    47    26    46 1
    48    26    47 1
    49    26    48 1
@<TRIPOS>SUBSTRUCTURE
     1 ENT         1 TEMP              0 ****  ****    0 ROOT
