@<TRIPOS>MOLECULE
molecule
   47    46     1     0     0
SMALL
bcc


@<TRIPOS>ATOM
      1 C2           0.0000     0.0000     0.0000 c          1 ENV       0.527100
      2 C3           1.5070     0.0000     0.0000 c3         1 ENV       0.068900
      3 C4          -0.7530     0.0000     1.3060 c3         1 ENV      -0.178400
      4 F4           1.9730    -0.0010    -1.3190 f          1 ENV      -0.223300
      5 O5          -0.6040     0.0050    -1.0450 o          1 ENV      -0.491100
      6 C6          -2.2580     0.0010     1.0260 c3         1 ENV      -0.091400
      7 C7          -3.0220     0.0010     2.3510 c3         1 ENV       0.111000
      8 N8          -4.4630     0.0020     2.0840 ns         1 ENV      -0.587900
      9 C9          -5.3380     0.0020     3.1090 c          1 ENV       0.661100
     10 C10         -6.8200     0.0030     2.8350 c3         1 ENV      -0.178400
     11 O11         -4.9330     0.0020     4.2530 o          1 ENV      -0.602100
     12 H3           1.8680    -0.8840     0.5110 h1         1 ENV       0.065700
     13 H3A          1.8680     0.8850     0.5100 h1         1 ENV       0.065700
     14 H4          -0.4920    -0.8850     1.8730 hc         1 ENV       0.070700
     15 H6          -2.5200    -0.8830     0.4580 hc         1 ENV       0.060700
     16 H6A         -2.5190     0.8860     0.4580 hc         1 ENV       0.060700
     17 H7          -2.7600    -0.8830     2.9190 h1         1 ENV       0.053700
     18 HN8         -4.7970     0.0020     1.1410 hn         1 ENV       0.315500
     19 C8          -7.5840     0.0030     4.1600 c3         1 ENV       0.125000
     20 H10         -7.0820    -0.8810     2.2670 hc         1 ENV       0.063700
     21 N2          -9.0250     0.0040     3.8910 ns         1 ENV      -0.584900
     22 C91         -9.9000     0.0050     4.9160 c          1 ENV       0.648100
     23 C101       -11.3780     0.1220     4.6450 c3         1 ENV       0.080100
     24 C11        -11.8680     1.5060     5.0760 c3         1 ENV      -0.054000
     25 O3          -9.4990    -0.0900     6.0570 o          1 ENV      -0.602100
     26 O4         -11.6210    -0.0570     3.2480 oh         1 ENV      -0.614800
     27 C12        -13.3310     1.6800     4.6660 c3         1 ENV       0.150400
     28 C13        -11.7450     1.6400     6.5950 c3         1 ENV      -0.082600
     29 C14        -11.0170     2.5820     4.3980 c3         1 ENV      -0.082600
     30 O51        -13.7880     2.9720     5.0680 oh         1 ENV      -0.608800
     31 H4A         -0.4910     0.8840     1.8740 hc         1 ENV       0.070700
     32 H7A         -2.7600     0.8860     2.9190 h1         1 ENV       0.053700
     33 H10A        -7.0820     0.8880     2.2670 hc         1 ENV       0.063700
     34 H12         -7.3230    -0.8810     4.7280 h1         1 ENV       0.070200
     35 H13         -7.3220     0.8880     4.7280 h1         1 ENV       0.070200
     36 H14         -9.3580    -0.0510     2.9490 hn         1 ENV       0.324500
     37 H15        -11.9090    -0.6390     5.2030 h1         1 ENV       0.063700
     38 H16        -11.9670    -0.9210     3.0970 ho         1 ENV       0.406000
     39 H17        -13.9340     0.9180     5.1460 h1         1 ENV       0.024200
     40 H18        -13.4190     1.5840     3.5900 h1         1 ENV       0.024200
     41 H19        -12.0100     0.7000     7.0630 hc         1 ENV       0.046867
     42 H20        -12.4120     2.4190     6.9440 hc         1 ENV       0.046867
     43 H21        -10.7250     1.8970     6.8530 hc         1 ENV       0.046867
     44 H22         -9.9780     2.4480     4.6750 hc         1 ENV       0.046867
     45 H23        -11.3520     3.5610     4.7170 hc         1 ENV       0.046867
     46 H24        -11.1180     2.4980     3.3230 hc         1 ENV       0.046867
     47 H25        -14.6950     3.0740     4.8290 ho         1 ENV       0.402000
@<TRIPOS>BOND
     1     1     2 1
     2     2     4 1
     3     2    12 1
     4     2    13 1
     5     3     1 1
     6     3     6 1
     7     3    14 1
     8     5     1 2
     9     6    15 1
    10     6    16 1
    11     7     6 1
    12     7    17 1
    13     8     7 1
    14     8    18 1
    15     9     8 1
    16    10     9 1
    17    10    19 1
    18    10    20 1
    19    11     9 2
    20    19    21 1
    21    21    22 1
    22    22    23 1
    23    23    24 1
    24    22    25 2
    25    23    26 1
    26    24    27 1
    27    24    28 1
    28    24    29 1
    29    27    30 1
    30     3    31 1
    31     7    32 1
    32    10    33 1
    33    19    34 1
    34    19    35 1
    35    21    36 1
    36    23    37 1
    37    26    38 1
    38    27    39 1
    39    27    40 1
    40    28    41 1
    41    28    42 1
    42    28    43 1
    43    29    44 1
    44    29    45 1
    45    29    46 1
    46    30    47 1
@<TRIPOS>SUBSTRUCTURE
     1 ENV         1 TEMP              0 ****  ****    0 ROOT
