@<TRIPOS>MOLECULE
ENW
   45    44     1     0     0
SMALL
bcc


@<TRIPOS>ATOM
      1 C2           0.0000     0.0000     0.0000 c          1 ENW       0.655100
      2 C3           1.5070     0.0000     0.0000 c3         1 ENW       0.180900
      3 F4           1.9740     0.0000     1.3180 f          1 ENW      -0.202300
      4 O4          -0.6710    -0.0000    -1.1620 os         1 ENW      -0.419900
      5 O5          -0.6030    -0.0060     1.0460 o          1 ENW      -0.549000
      6 C6          -2.1210    -0.0010    -1.0860 c3         1 ENW       0.214400
      7 C7          -2.7070     0.0000    -2.5000 c3         1 ENW       0.046000
      8 N8          -2.3550    -1.2520    -3.1740 ns         1 ENW      -0.203900
      9 C9          -2.7650    -1.4740    -4.4390 c          1 ENW       0.575100
     10 C10         -2.4020    -2.7620    -5.1320 c3         1 ENW      -0.110400
     11 O11         -3.4260    -0.6390    -5.0180 o          1 ENW      -0.634100
     12 H3           1.8680     0.8840    -0.5110 h1         1 ENW       0.030700
     13 H3A          1.8680    -0.8840    -0.5110 h1         1 ENW       0.030700
     14 H6          -2.4550    -0.8850    -0.5570 h1         1 ENW       0.021200
     15 H6A         -2.4560     0.8840    -0.5560 h1         1 ENW       0.021200
     16 H7          -2.3030     0.8370    -3.0570 h1         1 ENW       0.038700
     17 H7A         -3.7850     0.0900    -2.4450 h1         1 ENW       0.038700
     18 HN8         -1.8360    -1.9550    -2.6860 hn         1 ENW       0.177500
     19 C71         -2.9870    -2.7620    -6.5460 c3         1 ENW       0.061000
     20 H10         -1.3230    -2.8510    -5.1880 hc         1 ENW       0.028200
     21 H10A        -2.8050    -3.5990    -4.5740 hc         1 ENW       0.028200
     22 N2          -2.6350    -4.0130    -7.2210 ns         1 ENW      -0.202900
     23 C8          -3.0450    -4.2360    -8.4860 c          1 ENW       0.558100
     24 H101        -2.0600    -4.6870    -6.7560 hn         1 ENW       0.186500
     25 C91         -2.5880    -5.4710    -9.2190 c3         1 ENW       0.125100
     26 O41         -3.7810    -3.4440    -9.0330 o          1 ENW      -0.640100
     27 O51         -1.6080    -6.1550    -8.4360 oh         1 ENW      -0.594800
     28 C101        -3.7860    -6.3930    -9.4580 c3         1 ENW      -0.071000
     29 C11         -3.3020    -7.7050   -10.0800 c3         1 ENW       0.228400
     30 C12         -4.4780    -6.6860    -8.1250 c3         1 ENW      -0.003100
     31 C13         -4.7730    -5.7120   -10.4070 c3         1 ENW      -0.003100
     32 O6          -4.4200    -8.5670   -10.3030 oh         1 ENW      -0.588800
     33 H11         -4.0660    -2.6730    -6.4900 h1         1 ENW       0.042200
     34 H12         -2.5850    -1.9250    -7.1040 h1         1 ENW       0.042200
     35 H13         -2.1560    -5.1860   -10.1700 h1         1 ENW       0.027700
     36 H14         -0.7520    -5.9980    -8.7970 ho         1 ENW       0.394000
     37 H15         -2.6020    -8.1870    -9.4080 h1         1 ENW      -0.009800
     38 H16         -2.8120    -7.4970   -11.0240 h1         1 ENW      -0.009800
     39 H17         -3.7460    -7.0330    -7.4060 hc         1 ENW       0.016700
     40 H18         -4.9470    -5.7820    -7.7560 hc         1 ENW       0.016700
     41 H19         -5.2320    -7.4510    -8.2700 hc         1 ENW       0.016700
     42 H20         -4.2260    -5.1820   -11.1770 hc         1 ENW       0.016700
     43 H21         -5.3840    -5.0120    -9.8510 hc         1 ENW       0.016700
     44 H22         -5.4080    -6.4600   -10.8660 hc         1 ENW       0.016700
     45 H23         -4.1230    -9.3740   -10.6890 ho         1 ENW       0.388000
@<TRIPOS>BOND
     1     1     2 1   
     2     1     4 1   
     3     1     5 2   
     4     2     3 1   
     5     2    12 1   
     6     2    13 1   
     7     4     6 1   
     8     6     7 1   
     9     6    14 1   
    10     6    15 1   
    11     7     8 1   
    12     7    16 1   
    13     7    17 1   
    14     8     9 1   
    15     8    18 1   
    16     9    10 1   
    17     9    11 2   
    18    10    19 1   
    19    10    20 1   
    20    10    21 1   
    21    19    22 1   
    22    19    33 1   
    23    19    34 1   
    24    22    23 1   
    25    22    24 1   
    26    23    25 1   
    27    23    26 2   
    28    25    27 1   
    29    25    28 1   
    30    25    35 1   
    31    27    36 1   
    32    28    29 1   
    33    28    30 1   
    34    28    31 1   
    35    29    32 1   
    36    29    37 1   
    37    29    38 1   
    38    30    39 1   
    39    30    40 1   
    40    30    41 1   
    41    31    42 1   
    42    31    43 1   
    43    31    44 1   
    44    32    45 1   
@<TRIPOS>SUBSTRUCTURE
     1 ENW         1 TEMP              0 ****  ****    0 ROOT
