@<TRIPOS>MOLECULE
molecule
   45    44     1     0     0
SMALL
bcc


@<TRIPOS>ATOM
      1 C2           0.0000     0.0000     0.0000 c          1 ENW       0.594100
      2 C3           1.5070     0.0000     0.0000 c3         1 ENW       0.126900
      3 F4           1.9740     0.0000     1.3180 f          1 ENW      -0.212300
      4 O4          -0.6710    -0.0000    -1.1620 os         1 ENW      -0.434900
      5 O5          -0.6030    -0.0060     1.0460 o          1 ENW      -0.515000
      6 C6          -2.1210    -0.0010    -1.0860 c3         1 ENW       0.129400
      7 C7          -2.7070     0.0000    -2.5000 c3         1 ENW       0.114000
      8 N8          -2.3550    -1.2520    -3.1740 ns         1 ENW      -0.588900
      9 C9          -2.7650    -1.4740    -4.4390 c          1 ENW       0.661100
     10 C10         -2.4020    -2.7620    -5.1320 c3         1 ENW      -0.178400
     11 O11         -3.4260    -0.6390    -5.0180 o          1 ENW      -0.599100
     12 H3           1.8680     0.8840    -0.5110 h1         1 ENW       0.074700
     13 H3A          1.8680    -0.8840    -0.5110 h1         1 ENW       0.074700
     14 H6          -2.4550    -0.8850    -0.5570 h1         1 ENW       0.062700
     15 H6A         -2.4560     0.8840    -0.5560 h1         1 ENW       0.062700
     16 H7          -2.3030     0.8370    -3.0570 h1         1 ENW       0.070200
     17 H7A         -3.7850     0.0900    -2.4450 h1         1 ENW       0.070200
     18 HN8         -1.8360    -1.9550    -2.6860 hn         1 ENW       0.317500
     19 C71         -2.9870    -2.7620    -6.5460 c3         1 ENW       0.125000
     20 H10         -1.3230    -2.8510    -5.1880 hc         1 ENW       0.063700
     21 H10A        -2.8050    -3.5990    -4.5740 hc         1 ENW       0.063700
     22 N2          -2.6350    -4.0130    -7.2210 ns         1 ENW      -0.586900
     23 C8          -3.0450    -4.2360    -8.4860 c          1 ENW       0.649100
     24 H101        -2.0600    -4.6870    -6.7560 hn         1 ENW       0.323500
     25 C91         -2.5880    -5.4710    -9.2190 c3         1 ENW       0.079100
     26 O41         -3.7810    -3.4440    -9.0330 o          1 ENW      -0.600100
     27 O51         -1.6080    -6.1550    -8.4360 oh         1 ENW      -0.614800
     28 C101        -3.7860    -6.3930    -9.4580 c3         1 ENW      -0.054000
     29 C11         -3.3020    -7.7050   -10.0800 c3         1 ENW       0.149400
     30 C12         -4.4780    -6.6860    -8.1250 c3         1 ENW      -0.083600
     31 C13         -4.7730    -5.7120   -10.4070 c3         1 ENW      -0.083600
     32 O6          -4.4200    -8.5670   -10.3030 oh         1 ENW      -0.608800
     33 H11         -4.0660    -2.6730    -6.4900 h1         1 ENW       0.070700
     34 H12         -2.5850    -1.9250    -7.1040 h1         1 ENW       0.070700
     35 H13         -2.1560    -5.1860   -10.1700 h1         1 ENW       0.064700
     36 H14         -0.7520    -5.9980    -8.7970 ho         1 ENW       0.406000
     37 H15         -2.6020    -8.1870    -9.4080 h1         1 ENW       0.024700
     38 H16         -2.8120    -7.4970   -11.0240 h1         1 ENW       0.024700
     39 H17         -3.7460    -7.0330    -7.4060 hc         1 ENW       0.047367
     40 H18         -4.9470    -5.7820    -7.7560 hc         1 ENW       0.047367
     41 H19         -5.2320    -7.4510    -8.2700 hc         1 ENW       0.047367
     42 H20         -4.2260    -5.1820   -11.1770 hc         1 ENW       0.047367
     43 H21         -5.3840    -5.0120    -9.8510 hc         1 ENW       0.047367
     44 H22         -5.4080    -6.4600   -10.8660 hc         1 ENW       0.047367
     45 H23         -4.1230    -9.3740   -10.6890 ho         1 ENW       0.402000
@<TRIPOS>BOND
     1     1     4 1
     2     1     2 1
     3     2    12 1
     4     2    13 1
     5     3     2 1
     6     5     1 2
     7     6     4 1
     8     6    14 1
     9     6    15 1
    10     7     6 1
    11     7    16 1
    12     7    17 1
    13     8     7 1
    14     8    18 1
    15     9     8 1
    16     9    10 1
    17    10    19 1
    18    10    20 1
    19    10    21 1
    20    11     9 2
    21    19    22 1
    22    22    23 1
    23    22    24 1
    24    23    25 1
    25    23    26 2
    26    25    27 1
    27    25    28 1
    28    28    29 1
    29    28    30 1
    30    28    31 1
    31    29    32 1
    32    19    33 1
    33    19    34 1
    34    25    35 1
    35    27    36 1
    36    29    37 1
    37    29    38 1
    38    30    39 1
    39    30    40 1
    40    30    41 1
    41    31    42 1
    42    31    43 1
    43    31    44 1
    44    32    45 1
@<TRIPOS>SUBSTRUCTURE
     1 ENW         1 TEMP              0 ****  ****    0 ROOT
