@<TRIPOS>MOLECULE
molecule
   31    32     1     0     0
SMALL
bcc


@<TRIPOS>ATOM
      1 C10          0.0000     0.0000     0.0000 ca         1 ENY      -0.152600
      2 C13         -0.6680    -0.0050    -3.7230 ce         1 ENY       0.142900
      3 C15          0.0770    -0.0070    -5.0030 c          1 ENY       0.848800
      4 C20          2.1180     0.0040     3.6100 ca         1 ENY      -0.164000
      5 C01          1.3170    -0.0030     7.1720 c3         1 ENY       0.131700
      6 C03          1.4200     0.0000     4.7970 ca         1 ENY       0.129100
      7 C04          0.0210    -0.0050     4.8040 ca         1 ENY      -0.220000
      8 C05         -0.6830    -0.0060     3.6410 ca         1 ENY      -0.069000
      9 C06         -0.0010    -0.0020     2.4090 ca         1 ENY      -0.082000
     10 C07          1.4180     0.0030     2.3940 ca         1 ENY       0.010000
     11 C08          2.1020     0.0000     1.1640 ca         1 ENY      -0.154000
     12 C09          1.4070     0.0000     0.0000 ca         1 ENY      -0.072000
     13 C11         -0.7340    -0.0010    -1.2810 c          1 ENY       0.572900
     14 C12          0.0040    -0.0030    -2.5490 cf         1 ENY      -0.358200
     15 C19         -0.7030    -0.0030     1.1960 ca         1 ENY      -0.065000
     16 O02          2.0970     0.0010     5.9750 os         1 ENY      -0.334900
     17 O14         -2.0210    -0.0040    -3.7280 oh         1 ENY      -0.504100
     18 O16         -0.5930    -0.0090    -6.1720 o          1 ENY      -0.817800
     19 O17          1.2910    -0.0080    -4.9980 o          1 ENY      -0.817800
     20 O18         -1.9510    -0.0010    -1.2850 o          1 ENY      -0.553100
     21 H2           3.2010     0.0080     3.6150 ha         1 ENY       0.142000
     22 H3           1.9750    -0.0020     8.0320 h1         1 ENY       0.036367
     23 H4           0.6890     0.8790     7.1960 h1         1 ENY       0.036367
     24 H5           0.6950    -0.8900     7.1940 h1         1 ENY       0.036367
     25 H6          -0.5090    -0.0080     5.7490 ha         1 ENY       0.125000
     26 H7          -1.7660    -0.0100     3.6620 ha         1 ENY       0.132000
     27 H8           3.1850    -0.0000     1.1470 ha         1 ENY       0.130000
     28 H9           1.9420     0.0000    -0.9420 ha         1 ENY       0.155000
     29 H10          1.0880    -0.0030    -2.5450 ha         1 ENY       0.156000
     30 H12         -1.7860    -0.0030     1.1920 ha         1 ENY       0.152000
     31 H13         -2.3340    -0.7540    -4.2060 ho         1 ENY       0.430000
@<TRIPOS>BOND
     1     5    16 1
     2     7     8 ar
     3     7     6 ar
     4     8     9 ar
     5    16     6 1
     6     6     4 ar
     7     9    15 ar
     8     9    10 ar
     9    20    13 2
    10    15     1 ar
    11     4    10 ar
    12    10    11 ar
    13    17     2 1
    14     1    13 1
    15     1    12 ar
    16    13    14 1
    17    11    12 ar
    18     2    14 2
    19     2     3 1
    20    19     3 1
    21     3    18 1
    22     4    21 1
    23     5    22 1
    24     5    23 1
    25     5    24 1
    26     7    25 1
    27     8    26 1
    28    11    27 1
    29    12    28 1
    30    14    29 1
    31    15    30 1
    32    17    31 1
@<TRIPOS>SUBSTRUCTURE
     1 ENY         1 TEMP              0 ****  ****    0 ROOT
