@<TRIPOS>MOLECULE
molecule
   67    72     1     0     0
SMALL
bcc


@<TRIPOS>ATOM
      1 C1           0.0000     0.0000     0.0000 c3         1 EO5      -0.243300
      2 C6           1.8300     1.8670    -1.8760 ca         1 EO5       0.149600
      3 C7           1.2930     3.1270    -2.0940 ca         1 EO5      -0.153000
      4 C8           0.9020     3.5040    -3.3780 ca         1 EO5       0.007200
      5 C12          1.9770     0.9810    -2.9360 ca         1 EO5      -0.190000
      6 C16         -0.0470     6.9610    -4.4410 ca         1 EO5       0.521800
      7 C18          1.1640     8.0440    -6.0720 ca         1 EO5       0.744900
      8 C24          5.0370     5.5860    -5.9110 c3         1 EO5      -0.104100
      9 C30          5.3120    -0.2350    -8.1110 cc         1 EO5      -0.050300
     10 C31          5.3410    -1.0440    -9.3820 c3         1 EO5      -0.019800
     11 C32          4.8930     1.0710    -7.9790 cd         1 EO5      -0.249900
     12 C33          4.3730     2.0660    -8.9170 c          1 EO5       0.743100
     13 C36          3.5510     4.2650    -9.3070 ca         1 EO5       0.019600
     14 C37          2.2200     4.6530    -9.2280 ca         1 EO5      -0.108500
     15 C38          1.7280     5.6130   -10.0900 ca         1 EO5      -0.120000
     16 C39          2.5610     6.1890   -11.0320 ca         1 EO5      -0.116000
     17 C40          3.8860     5.8050   -11.1140 ca         1 EO5      -0.120000
     18 S2           1.8140     0.0000     0.0000 s6         1 EO5       1.324900
     19 O3           2.3120     0.0000     1.3310 o          1 EO5      -0.623300
     20 O4           2.3130    -0.9130    -0.9690 o          1 EO5      -0.623300
     21 N5           2.2280     1.4900    -0.5910 nu         1 EO5      -0.770500
     22 C9           1.0530     2.6120    -4.4390 ca         1 EO5      -0.182000
     23 C10          1.5890     1.3540    -4.2150 ca         1 EO5       0.134100
     24 O11          1.7370     0.4850    -5.2480 oh         1 EO5      -0.509100
     25 C13          0.3280     4.8490    -3.6150 cd         1 EO5      -0.080400
     26 C14         -0.7380     5.3980    -2.9830 cc         1 EO5      -0.096100
     27 N15         -0.9660     6.6550    -3.4740 na         1 EO5      -0.266100
     28 N17          0.1720     8.0280    -5.2080 nb         1 EO5      -0.803000
     29 N19          1.9890     7.0230    -6.2280 nb         1 EO5      -0.842000
     30 C20          1.8520     5.9140    -5.5070 ca         1 EO5       0.775200
     31 N21          2.7180     4.8490    -5.6720 nu         1 EO5      -0.898900
     32 C22          3.8360     4.9520    -6.6140 c3         1 EO5       0.217200
     33 C25          4.2080     3.5770    -7.1050 cc         1 EO5       0.443900
     34 N26          4.6640     2.7190    -6.2560 n2         1 EO5      -0.559100
     35 N27          5.0270     1.4260    -6.6500 na         1 EO5       0.204000
     36 C28          5.5170     0.3660    -5.9770 cd         1 EO5      -0.070300
     37 C29          5.6960    -0.6660    -6.8390 cc         1 EO5      -0.224000
     38 N35          4.0510     3.2880    -8.4390 n          1 EO5      -0.307500
     39 C41          4.3850     4.8460   -10.2550 ca         1 EO5      -0.108500
     40 C42          0.8070     5.8530    -4.5730 ca         1 EO5      -0.393400
     41 H1          -0.3610    -0.1900    -1.0030 h1         1 EO5       0.100033
     42 H2          -0.3610    -0.7740     0.6670 h1         1 EO5       0.100033
     43 H3          -0.3610     0.9640     0.3370 h1         1 EO5       0.100033
     44 H4           1.1770     3.8180    -1.2680 ha         1 EO5       0.141000
     45 H5           2.3970    -0.0020    -2.7630 ha         1 EO5       0.194000
     46 H6           1.3110     8.9280    -6.6800 h5         1 EO5       0.061100
     47 H7           5.9340     5.4000    -6.4900 hc         1 EO5       0.053700
     48 H8           4.8810     6.6540    -5.8200 hc         1 EO5       0.053700
     49 H9           5.1480     5.1520    -4.9240 hc         1 EO5       0.053700
     50 H10          5.9930    -0.5640   -10.1010 hc         1 EO5       0.047033
     51 H11          4.3400    -1.1120    -9.7910 hc         1 EO5       0.047033
     52 H12          5.7110    -2.0400    -9.1680 hc         1 EO5       0.047033
     53 H13          1.5670     4.2020    -8.4900 ha         1 EO5       0.142500
     54 H14          0.6900     5.9150   -10.0280 ha         1 EO5       0.137000
     55 H15          2.1730     6.9420   -11.7080 ha         1 EO5       0.133000
     56 H16          4.5350     6.2580   -11.8540 ha         1 EO5       0.137000
     57 H17          2.7850     2.1110    -0.0380 hn         1 EO5       0.470800
     58 H18          0.7500     2.9020    -5.4370 ha         1 EO5       0.152000
     59 H19          0.9230     0.0310    -5.3960 ho         1 EO5       0.424000
     60 H20         -1.3220     4.9160    -2.2090 h4         1 EO5       0.175000
     61 H21         -1.6980     7.2640    -3.1680 hn         1 EO5       0.309700
     62 H22          2.6080     4.0250    -5.1150 hn         1 EO5       0.473800
     63 H23          3.5430     5.5690    -7.4550 h1         1 EO5       0.111700
     64 H24          5.7270     0.3410    -4.9140 h4         1 EO5       0.177000
     65 H25          6.1250    -1.6310    -6.5970 ha         1 EO5       0.160000
     66 H26          5.4240     4.5460   -10.3200 ha         1 EO5       0.142500
     67 O34          4.2360     1.8010   -10.0980 o          1 EO5      -0.596500
@<TRIPOS>BOND
     1     1    18 1
     2    37    36 2
     3    37     9 1
     4    36    35 1
     5    10     9 1
     6    19    18 2
     7    18    20 2
     8    18    21 1
     9     9    11 2
    10    35    11 1
    11    35    34 1
    12    11    12 1
    13    21     2 1
    14     5     2 ar
    15     5    23 ar
    16     2     3 ar
    17    24    23 1
    18    23    22 ar
    19     3     4 ar
    20    26    27 1
    21    26    25 2
    22    22     4 ar
    23     4    25 1
    24    34    33 2
    25    27     6 1
    26    25    40 1
    27    12    67 2
    28    12    38 1
    29     6    40 ar
    30     6    28 ar
    31    40    30 ar
    32    28     7 ar
    33    33    38 1
    34    33    32 1
    35    30    31 1
    36    30    29 ar
    37    38    13 1
    38    31    32 1
    39     7    29 ar
    40    32     8 1
    41    13    39 ar
    42    13    14 ar
    43    39    17 ar
    44    14    15 ar
    45    17    16 ar
    46    15    16 ar
    47     1    41 1
    48     1    42 1
    49     1    43 1
    50     3    44 1
    51     5    45 1
    52     7    46 1
    53     8    47 1
    54     8    48 1
    55     8    49 1
    56    10    50 1
    57    10    51 1
    58    10    52 1
    59    14    53 1
    60    15    54 1
    61    16    55 1
    62    17    56 1
    63    21    57 1
    64    22    58 1
    65    24    59 1
    66    26    60 1
    67    27    61 1
    68    31    62 1
    69    32    63 1
    70    36    64 1
    71    37    65 1
    72    39    66 1
@<TRIPOS>SUBSTRUCTURE
     1 EO5         1 TEMP              0 ****  ****    0 ROOT
