@<TRIPOS>MOLECULE
molecule
   38    40     1     0     0
SMALL
bcc


@<TRIPOS>ATOM
      1 C19          0.0000     0.0000     0.0000 cc         1 EO7       0.398700
      2 C22          1.7520     0.0000     1.2780 ca         1 EO7      -0.223200
      3 C21          0.6240    -0.0050     2.1150 ca         1 EO7       0.506800
      4 C23          3.0230    -0.0030     1.8770 ca         1 EO7       0.811200
      5 C26          2.0080    -0.0170     3.9510 ca         1 EO7       0.851000
      6 C4          -3.8820     1.3320     1.7480 c3         1 EO7       0.090100
      7 C2          -2.3550     1.4510     1.9690 c3         1 EO7       0.105100
      8 C7          -4.0400     0.0660     0.8820 c3         1 EO7       0.131100
      9 C16         -1.8720     0.0050     1.6930 c3         1 EO7       0.270800
     10 C9          -4.7460     0.4190    -0.4290 c3         1 EO7       0.135400
     11 N20          1.3010     0.0000     0.0000 nd         1 EO7      -0.561100
     12 N28          0.7960    -0.0140     3.4330 nb         1 EO7      -0.784000
     13 N25          3.0980    -0.0120     3.2040 nb         1 EO7      -0.815000
     14 N18         -0.4660    -0.0010     1.2820 na         1 EO7      -0.261000
     15 N24          4.1700     0.0010     1.1030 nv         1 EO7      -0.969500
     16 N13         -4.5690     0.0830    -3.5470 nz         1 EO7      -0.832500
     17 O12         -6.6490     0.4840    -2.2790 o          1 EO7      -0.523300
     18 O14         -6.0350    -1.8280    -3.0080 o          1 EO7      -0.523300
     19 O15         -2.7200    -0.4320     0.6090 os         1 EO7      -0.428600
     20 O6          -4.5600     1.1720     2.9960 oh         1 EO7      -0.551800
     21 O1          -2.0630     1.8390     3.3130 oh         1 EO7      -0.543800
     22 O10         -4.9920    -0.7760    -1.1730 os         1 EO7      -0.496500
     23 S11         -5.6930    -0.5440    -2.5050 s6         1 EO7       1.494400
     24 Cl           2.1790    -0.0270     5.6790 cl         1 EO7      -0.081000
     25 H1          -0.6220     0.0010    -0.8870 h5         1 EO7       0.059800
     26 H2          -4.2540     2.2000     1.2170 h1         1 EO7       0.040700
     27 H3          -1.9190     2.1420     1.2580 h1         1 EO7       0.056700
     28 H4          -4.6090    -0.6800     1.4230 h1         1 EO7       0.118700
     29 H5          -2.0230    -0.6180     2.5660 h2         1 EO7       0.132700
     30 H6          -5.6870     0.9100    -0.2130 h1         1 EO7       0.069200
     31 H7          -4.1170     1.0830    -1.0100 h1         1 EO7       0.069200
     32 H8           5.0700    -0.0040     1.5420 hn         1 EO7       0.458300
     33 H9           4.1000     0.0090     0.1050 hn         1 EO7       0.458300
     34 H10         -4.4370     1.0560    -3.3490 hn         1 EO7       0.498467
     35 H11         -4.8910    -0.0250    -4.4890 hn         1 EO7       0.498467
     36 H12         -5.2330     1.8260     3.0840 ho         1 EO7       0.420000
     37 H13         -1.8970     2.7650     3.3800 ho         1 EO7       0.421000
     38 H133        -3.7010    -0.4010    -3.4330 hn         1 EO7       0.498467
@<TRIPOS>BOND
     1    15     4 1
     2    11     1 2
     3    11     2 1
     4    20     6 1
     5     1    14 1
     6     7     6 1
     7     7    21 1
     8     7     9 1
     9     4     2 ar
    10     4    13 ar
    11     2     3 ar
    12     6     8 1
    13    14     3 1
    14    14     9 1
    15    13     5 ar
    16     3    12 ar
    17     9    19 1
    18     5    12 ar
    19     5    24 1
    20     8    19 1
    21     8    10 1
    22    10    22 1
    23    22    23 1
    24    16    23 1
    25    18    23 2
    26    23    17 2
    27     1    25 1
    28     6    26 1
    29     7    27 1
    30     8    28 1
    31     9    29 1
    32    10    30 1
    33    10    31 1
    34    15    32 1
    35    15    33 1
    36    16    34 1
    37    16    35 1
    38    20    36 1
    39    21    37 1
    40    38    16 1
@<TRIPOS>SUBSTRUCTURE
     1 EO7         1 TEMP              0 ****  ****    0 ROOT
