@<TRIPOS>MOLECULE
molecule
   22    22     1     0     0
SMALL
bcc


@<TRIPOS>ATOM
      1 C1           0.0000     0.0000     0.0000 ca         1 EOA      -0.085300
      2 C2           1.3810     0.0000     0.0000 ca         1 EOA      -0.121500
      3 C3           2.0730     0.0000     1.1970 ca         1 EOA      -0.125000
      4 C4           1.3830    -0.0010     2.3940 ca         1 EOA      -0.127000
      5 C5           0.0010     0.0000     2.3940 ca         1 EOA      -0.125000
      6 C6          -0.6900     0.0050     1.1980 ca         1 EOA      -0.121500
      7 C7          -0.7530     0.0010    -1.3040 c3         1 EOA      -0.053100
      8 C8          -1.0090    -1.4410    -1.7460 c3         1 EOA       0.110000
      9 N1          -1.7410    -1.4400    -3.0140 ns         1 EOA      -0.600900
     10 C9          -2.0800    -2.6060    -3.5990 c          1 EOA       0.653900
     11 O1          -1.7770    -3.6570    -3.0740 o          1 EOA      -0.610100
     12 H2           1.9230    -0.0020    -0.9380 ha         1 EOA       0.130000
     13 H3           3.1560    -0.0010     1.1960 ha         1 EOA       0.131000
     14 H4           1.9250    -0.0030     3.3320 ha         1 EOA       0.130000
     15 H5          -0.5400     0.0020     3.3330 ha         1 EOA       0.131000
     16 H6          -1.7730     0.0050     1.1990 ha         1 EOA       0.130000
     17 H71         -1.7000     0.5120    -1.1740 hc         1 EOA       0.050700
     18 H72         -0.1680     0.5120    -2.0590 hc         1 EOA       0.050700
     19 H81         -0.0620    -1.9520    -1.8770 h1         1 EOA       0.058700
     20 H82         -1.5940    -1.9530    -0.9920 h1         1 EOA       0.058700
     21 HN1         -1.9920    -0.5730    -3.4470 hn         1 EOA       0.310500
     22 H9          -2.5880    -2.6050    -4.5560 h5         1 EOA       0.022200
@<TRIPOS>BOND
     1     1     2 ar
     2     1     6 ar
     3     1     7 1
     4     2     3 ar
     5     2    12 1
     6     3     4 ar
     7     3    13 1
     8     4     5 ar
     9     4    14 1
    10     5     6 ar
    11     5    15 1
    12     6    16 1
    13     7     8 1
    14     7    17 1
    15     7    18 1
    16     8     9 1
    17     8    19 1
    18     8    20 1
    19     9    10 1
    20     9    21 1
    21    10    11 2
    22    10    22 1
@<TRIPOS>SUBSTRUCTURE
     1 EOA         1 TEMP              0 ****  ****    0 ROOT
