@<TRIPOS>MOLECULE
EOB
   32    32     1     0     0
SMALL
bcc


@<TRIPOS>ATOM
      1 OAF          0.0000     0.0000     0.0000 o          1 EOB      -0.743667
      2 PAU          1.6100     0.0000     0.0000 p5         1 EOB       0.434700
      3 OAE          2.1470     0.0000     1.5180 o          1 EOB      -0.743667
      4 OAC          2.1030    -1.2080    -0.6980 o          1 EOB      -0.743667
      5 CAM          2.2180     1.4900    -0.8600 c3         1 EOB      -0.104600
      6 CAQ          3.7200     1.4290    -0.9680 c          1 EOB       0.627600
      7 OAA          4.2380     0.7550    -1.8330 o          1 EOB      -0.702600
      8 NAO          4.4860     2.1240    -0.1050 ns         1 EOB      -0.073100
      9 CAS          5.8750     2.1620    -0.2760 ca         1 EOB      -0.016900
     10 CAL          6.7110     2.1430     0.8310 ca         1 EOB      -0.193000
     11 CAJ          6.4160     2.2250    -1.5530 ca         1 EOB      -0.175000
     12 CAI          7.7870     2.2630    -1.7230 ca         1 EOB      -0.104000
     13 CAK          8.6230     2.2380    -0.6230 ca         1 EOB      -0.175000
     14 CAT          8.0870     2.1760     0.6570 ca         1 EOB      -0.016900
     15 NAP          8.9350     2.1510     1.7700 ns         1 EOB      -0.073100
     16 CAR         10.0630     2.8870     1.7750 c          1 EOB       0.627600
     17 OAB         10.2950     3.6480     0.8590 o          1 EOB      -0.702600
     18 CAN         11.0390     2.7650     2.9180 c3         1 EOB      -0.104600
     19 PAV         10.7990     4.1540     4.0710 p5         1 EOB       0.434700
     20 OAH         11.7470     3.9550     5.3570 o          1 EOB      -0.743667
     21 OAG         11.1760     5.5360     3.3350 o          1 EOB      -0.743667
     22 OAD          9.3840     4.1980     4.5050 o          1 EOB      -0.743667
     23 HAM1         1.7860     1.5360    -1.8520 hc         1 EOB       0.003200
     24 HAM2         1.9320     2.3720    -0.3000 hc         1 EOB       0.003200
     25 HAO          4.0660     2.5820     0.6800 hn         1 EOB       0.174000
     26 HAL          6.2910     2.0940     1.8280 ha         1 EOB       0.124000
     27 HAJ          5.7630     2.2440    -2.4170 ha         1 EOB       0.117000
     28 HAI          8.2070     2.3120    -2.7200 ha         1 EOB       0.060000
     29 HAK          9.6970     2.2660    -0.7600 ha         1 EOB       0.117000
     30 HAP          8.6890     1.6070     2.5740 hn         1 EOB       0.174000
     31 HAN1        10.8700     1.8300     3.4380 hc         1 EOB       0.003200
     32 HAN2        12.0510     2.7860     2.5320 hc         1 EOB       0.003200
@<TRIPOS>BOND
     1     1     2 1   
     2     2     3 1   
     3     2     4 1   
     4     2     5 1   
     5     5     6 1   
     6     5    23 1   
     7     5    24 1   
     8     6     7 2   
     9     6     8 1   
    10     8     9 1   
    11     8    25 1   
    12     9    10 ar  
    13     9    11 ar  
    14    10    14 ar  
    15    10    26 1   
    16    11    12 ar  
    17    11    27 1   
    18    12    13 ar  
    19    12    28 1   
    20    13    14 ar  
    21    13    29 1   
    22    14    15 1   
    23    15    16 1   
    24    15    30 1   
    25    16    17 2   
    26    16    18 1   
    27    18    19 1   
    28    18    31 1   
    29    18    32 1   
    30    19    20 1   
    31    19    21 1   
    32    19    22 1   
@<TRIPOS>SUBSTRUCTURE
     1 EOB         1 TEMP              0 ****  ****    0 ROOT
