@<TRIPOS>MOLECULE
EOD
   54    54     1     0     0
SMALL
bcc


@<TRIPOS>ATOM
      1 O1          0.2450    0.9980    0.1230 o         1 EOD     -0.853300
      2 C1          1.2290    0.2040    0.0600 c         1 EOD      0.907600
      3 O2          1.6390   -0.4860    1.0370 o         1 EOD     -0.853300
      4 C2          1.9900    0.0810   -1.2720 c3        1 EOD     -0.194400
      5 C3          1.0400   -0.0620   -2.4360 c3        1 EOD     -0.065400
      6 C4          1.7600    0.0140   -3.7660 c3        1 EOD     -0.078400
      7 C5          0.7990   -0.1460   -4.9260 c3        1 EOD     -0.078400
      8 C6          1.5130   -0.0440   -6.2570 c3        1 EOD     -0.078400
      9 C7          0.5490   -0.1970   -7.4130 c3        1 EOD     -0.079400
     10 C8          1.2580   -0.0700   -8.7440 c3        1 EOD     -0.078400
     11 C9          0.2900   -0.2090   -9.9000 c3        1 EOD     -0.079400
     12 C10         0.9960   -0.0520  -11.2300 c3        1 EOD     -0.077400
     13 C11         0.0190   -0.1690  -12.3810 c3        1 EOD     -0.077400
     14 C12         0.6970    0.0260  -13.7040 cx        1 EOD      0.070100
     15 O3          0.4610   -0.9900  -14.6960 os        1 EOD     -0.411600
     16 C13        -0.0810    0.3190  -14.9450 cx        1 EOD      0.060100
     17 C14        -1.5750    0.4390  -14.9230 c3        1 EOD     -0.075400
     18 C15        -2.1590    0.3270  -16.3150 c3        1 EOD     -0.076400
     19 C16        -3.6680    0.4430  -16.2840 c3        1 EOD     -0.079400
     20 C17        -4.2560    0.3370  -17.6740 c3        1 EOD     -0.079400
     21 C18        -5.7590    0.4480  -17.6490 c3        1 EOD     -0.092100
     22 H21         2.6840   -0.7950   -1.2240 hc        1 EOD      0.018700
     23 H22         2.6100    1.0050   -1.3970 hc        1 EOD      0.018700
     24 H31         0.5000   -1.0420   -2.3580 hc        1 EOD      0.043700
     25 H32         0.2650    0.7480   -2.3690 hc        1 EOD      0.043700
     26 H41         2.2870    1.0000   -3.8510 hc        1 EOD      0.025700
     27 H42         2.5450   -0.7850   -3.8170 hc        1 EOD      0.025700
     28 H51         0.0040    0.6420   -4.8630 hc        1 EOD      0.036700
     29 H52         0.2840   -1.1400   -4.8510 hc        1 EOD      0.036700
     30 H61         2.0310    0.9490   -6.3290 hc        1 EOD      0.034200
     31 H62         2.3060   -0.8350   -6.3210 hc        1 EOD      0.034200
     32 H71         0.0430   -1.1960   -7.3510 hc        1 EOD      0.038200
     33 H72        -0.2530    0.5840   -7.3390 hc        1 EOD      0.038200
     34 H81         1.7720    0.9260   -8.8020 hc        1 EOD      0.038200
     35 H82         2.0540   -0.8570   -8.8230 hc        1 EOD      0.038200
     36 H91        -0.5170    0.5660   -9.8080 hc        1 EOD      0.039700
     37 H92        -0.2090   -1.2130   -9.8540 hc        1 EOD      0.039700
     38 H101        1.5080    0.9460  -11.2680 hc        1 EOD      0.041700
     39 H102        1.7910   -0.8380  -11.3300 hc        1 EOD      0.041700
     40 H111       -0.4770   -1.1760  -12.3580 hc        1 EOD      0.056200
     41 H112       -0.7890    0.6040  -12.2690 hc        1 EOD      0.056200
     42 H12         1.7570    0.3470  -13.6460 h1        1 EOD      0.087700
     43 H13         0.4120    0.8500  -15.7840 h1        1 EOD      0.082700
     44 H141       -1.8440    1.4330  -14.4750 hc        1 EOD      0.055700
     45 H142       -2.0100   -0.3590  -14.2640 hc        1 EOD      0.055700
     46 H151       -1.8630   -0.6570  -16.7640 hc        1 EOD      0.043700
     47 H152       -1.7330    1.1330  -16.9700 hc        1 EOD      0.043700
     48 H161       -4.0930   -0.3670  -15.6330 hc        1 EOD      0.040700
     49 H162       -3.9620    1.4230  -15.8250 hc        1 EOD      0.040700
     50 H171       -3.9590   -0.6440  -18.1320 hc        1 EOD      0.038200
     51 H172       -3.8290    1.1460  -18.3230 hc        1 EOD      0.038200
     52 H181       -6.1720    0.3680  -18.6830 hc        1 EOD      0.032367
     53 H182       -6.2040   -0.3650  -17.0260 hc        1 EOD      0.032367
     54 H183       -6.0740    1.4290  -17.2180 hc        1 EOD      0.032367
@<TRIPOS>BOND
     1    1    2 1   
     2    2    3 1   
     3    2    4 1   
     4    4    5 1   
     5    4   22 1   
     6    4   23 1   
     7    5    6 1   
     8    5   24 1   
     9    5   25 1   
    10    6    7 1   
    11    6   26 1   
    12    6   27 1   
    13    7    8 1   
    14    7   28 1   
    15    7   29 1   
    16    8    9 1   
    17    8   30 1   
    18    8   31 1   
    19    9   10 1   
    20    9   32 1   
    21    9   33 1   
    22   10   11 1   
    23   10   34 1   
    24   10   35 1   
    25   11   12 1   
    26   11   36 1   
    27   11   37 1   
    28   12   13 1   
    29   12   38 1   
    30   12   39 1   
    31   13   14 1   
    32   13   40 1   
    33   13   41 1   
    34   14   15 1   
    35   14   16 1   
    36   14   42 1   
    37   15   16 1   
    38   16   17 1   
    39   16   43 1   
    40   17   18 1   
    41   17   44 1   
    42   17   45 1   
    43   18   19 1   
    44   18   46 1   
    45   18   47 1   
    46   19   20 1   
    47   19   48 1   
    48   19   49 1   
    49   20   21 1   
    50   20   50 1   
    51   20   51 1   
    52   21   52 1   
    53   21   53 1   
    54   21   54 1   
@<TRIPOS>SUBSTRUCTURE
     1 EOD         1 TEMP              0 ****  ****    0 ROOT
