@<TRIPOS>MOLECULE
molecule
   54    54     1     0     0
SMALL
bcc


@<TRIPOS>ATOM
      1 O1           0.0000     0.0000     0.0000 o          1 EOD      -0.858300
      2 C1           1.2080     0.0000     0.0000 c          1 EOD       0.891600
      3 O2           1.8800     0.0000     1.1620 o          1 EOD      -0.858300
      4 C2           1.9620    -0.0010    -1.3050 c3         1 EOD      -0.183400
      5 C3           0.9670    -0.0020    -2.4680 c3         1 EOD      -0.063400
      6 C4           1.7320    -0.0030    -3.7930 c3         1 EOD      -0.088400
      7 C5           0.7380    -0.0040    -4.9550 c3         1 EOD      -0.081400
      8 C6           1.5020    -0.0050    -6.2810 c3         1 EOD      -0.083400
      9 C7           0.5070    -0.0050    -7.4440 c3         1 EOD      -0.082400
     10 C8           1.2730    -0.0060    -8.7690 c3         1 EOD      -0.082400
     11 C9           0.2780    -0.0060    -9.9310 c3         1 EOD      -0.082400
     12 C10          1.0430    -0.0070   -11.2570 c3         1 EOD      -0.080400
     13 C11          0.0490    -0.0080   -12.4200 c3         1 EOD      -0.066400
     14 C12          0.8130    -0.0090   -13.7440 cx         1 EOD       0.046100
     15 O3           0.6590    -1.1430   -14.6030 op         1 EOD      -0.386600
     16 C13         -0.0010     0.0460   -15.0390 cx         1 EOD       0.036100
     17 C14         -1.5260     0.1010   -14.9210 c3         1 EOD      -0.064400
     18 C15         -2.1400     0.2430   -16.3150 c3         1 EOD      -0.080400
     19 C16         -3.6650     0.2970   -16.1970 c3         1 EOD      -0.082400
     20 C17         -4.2790     0.4390   -17.5900 c3         1 EOD      -0.083400
     21 C18         -5.8040     0.4930   -17.4720 c3         1 EOD      -0.092100
     22 H21          2.5840    -0.8860    -1.3610 hc         1 EOD       0.026700
     23 H22          2.5850     0.8830    -1.3630 hc         1 EOD       0.026700
     24 H31          0.3440    -0.8860    -2.4100 hc         1 EOD       0.044700
     25 H32          0.3440     0.8830    -2.4110 hc         1 EOD       0.044700
     26 H41          2.3550    -0.8880    -3.8500 hc         1 EOD       0.028700
     27 H42          2.3550     0.8810    -3.8510 hc         1 EOD       0.028700
     28 H51          0.1150    -0.8880    -4.8970 hc         1 EOD       0.038700
     29 H52          0.1150     0.8810    -4.8980 hc         1 EOD       0.038700
     30 H61          2.1240    -0.8890    -6.3380 hc         1 EOD       0.036200
     31 H62          2.1250     0.8800    -6.3400 hc         1 EOD       0.036200
     32 H71         -0.1150    -0.8900    -7.3860 hc         1 EOD       0.039200
     33 H72         -0.1160     0.8790    -7.3860 hc         1 EOD       0.039200
     34 H81          1.8960    -0.8900    -8.8260 hc         1 EOD       0.039700
     35 H82          1.8950     0.8790    -8.8260 hc         1 EOD       0.039700
     36 H91         -0.3450    -0.8900    -9.8730 hc         1 EOD       0.040700
     37 H92         -0.3440     0.8790    -9.8740 hc         1 EOD       0.040700
     38 H101         1.6660    -0.8920   -11.3140 hc         1 EOD       0.044200
     39 H102         1.6660     0.8770   -11.3150 hc         1 EOD       0.044200
     40 H111        -0.5740    -0.8920   -12.3610 hc         1 EOD       0.054700
     41 H112        -0.5740     0.8770   -12.3630 hc         1 EOD       0.054700
     42 H12          1.7830     0.4710   -13.7950 h1         1 EOD       0.088700
     43 H13          0.4850     0.5610   -15.8600 h1         1 EOD       0.086700
     44 H141        -1.8100     0.9520   -14.3130 hc         1 EOD       0.056700
     45 H142        -1.8850    -0.8100   -14.4590 hc         1 EOD       0.056700
     46 H151        -1.7810     1.1550   -16.7770 hc         1 EOD       0.043200
     47 H152        -1.8550    -0.6070   -16.9230 hc         1 EOD       0.043200
     48 H161        -3.9500     1.1460   -15.5880 hc         1 EOD       0.043200
     49 H162        -4.0240    -0.6150   -15.7350 hc         1 EOD       0.043200
     50 H171        -3.9200     1.3510   -18.0520 hc         1 EOD       0.039700
     51 H172        -3.9940    -0.4100   -18.1990 hc         1 EOD       0.039700
     52 H181        -6.2400     0.5940   -18.4590 hc         1 EOD       0.032033
     53 H182        -6.0890     1.3420   -16.8630 hc         1 EOD       0.032033
     54 H183        -6.1630    -0.4190   -17.0100 hc         1 EOD       0.032033
@<TRIPOS>BOND
     1     1     2 1
     2     2     3 1
     3     2     4 1
     4     4     5 1
     5     4    22 1
     6     4    23 1
     7     5     6 1
     8     5    24 1
     9     5    25 1
    10     6     7 1
    11     6    26 1
    12     6    27 1
    13     7     8 1
    14     7    28 1
    15     7    29 1
    16     8     9 1
    17     8    30 1
    18     8    31 1
    19     9    10 1
    20     9    32 1
    21     9    33 1
    22    10    11 1
    23    10    34 1
    24    10    35 1
    25    11    12 1
    26    11    36 1
    27    11    37 1
    28    12    13 1
    29    12    38 1
    30    12    39 1
    31    13    14 1
    32    13    40 1
    33    13    41 1
    34    14    15 1
    35    14    16 1
    36    14    42 1
    37    15    16 1
    38    16    17 1
    39    16    43 1
    40    17    18 1
    41    17    44 1
    42    17    45 1
    43    18    19 1
    44    18    46 1
    45    18    47 1
    46    19    20 1
    47    19    48 1
    48    19    49 1
    49    20    21 1
    50    20    50 1
    51    20    51 1
    52    21    52 1
    53    21    53 1
    54    21    54 1
@<TRIPOS>SUBSTRUCTURE
     1 EOD         1 TEMP              0 ****  ****    0 ROOT
