@<TRIPOS>MOLECULE
EOG
   39    42     1     0     0
SMALL
bcc


@<TRIPOS>ATOM
      1 C4           0.0000     0.0000     0.0000 ca         1 EOG       0.398600
      2 C5           1.4080     0.0000     0.0000 ca         1 EOG      -0.295600
      3 C6           2.0980     0.0000     1.2010 ca         1 EOG      -0.034000
      4 C17          4.5560    -0.0000    -0.6690 ca         1 EOG      -0.101900
      5 C20          6.7430    -0.0020     1.0300 ca         1 EOG      -0.066000
      6 C21          6.2010    -1.2020     0.6040 ca         1 EOG      -0.094000
      7 C22          5.1110    -1.2090    -0.2420 ca         1 EOG      -0.013600
      8 C24          2.1660    -0.0030     6.1240 c3         1 EOG       0.087300
      9 C19          6.2010     1.1980     0.6070 ca         1 EOG      -0.096000
     10 C18          5.1110     1.2060    -0.2400 ca         1 EOG      -0.066000
     11 C2          -0.0080    -0.0070     2.3960 ca         1 EOG      -0.076000
     12 C3          -0.6940    -0.0010     1.2190 ca         1 EOG      -0.134300
     13 C1           1.3930    -0.0020     2.4030 ca         1 EOG      -0.142600
     14 C16          3.3890     0.0020    -1.5770 cc         1 EOG       0.163400
     15 C12          1.3550     0.0020    -2.3780 cc         1 EOG      -0.404600
     16 C11         -0.0560     0.0080    -2.3170 cc         1 EOG       0.485600
     17 C25         -0.8560     0.0160    -3.5940 c3         1 EOG      -0.043400
     18 N15          3.4230     0.0030    -2.8990 nd         1 EOG      -0.306700
     19 N14          2.2260     0.0020    -3.3700 nd         1 EOG      -0.032000
     20 N10         -0.6780     0.0070    -1.1680 nd         1 EOG      -0.599000
     21 N13          2.0800     0.0010    -1.2090 na         1 EOG       0.502800
     22 N8           1.4420    -0.0030     4.8500 ns         1 EOG      -0.193900
     23 O9           3.3390    -0.0010     3.6940 o          1 EOG      -0.644100
     24 Cl3          4.4320    -2.7150    -0.7750 cl         1 EOG      -0.011400
     25 H1           3.1770     0.0940     1.2060 ha         1 EOG       0.155000
     26 H2           7.5980    -0.0030     1.6950 ha         1 EOG       0.108000
     27 H3           6.6320    -2.1390     0.9380 ha         1 EOG       0.118000
     28 H4           2.7870     0.8820     6.1860 h1         1 EOG       0.011367
     29 H5           2.7900    -0.8870     6.1840 h1         1 EOG       0.011367
     30 H6           1.4570    -0.0050     6.9430 h1         1 EOG       0.011367
     31 H7           6.6310     2.1340     0.9420 ha         1 EOG       0.109000
     32 H8           4.6860     2.1470    -0.5700 ha         1 EOG       0.112000
     33 H9          -0.5510    -0.0080     3.3340 ha         1 EOG       0.106000
     34 H10         -1.7770    -0.0050     1.2250 ha         1 EOG       0.126000
     35 H11         -0.6200    -0.8680    -4.1740 hc         1 EOG       0.026033
     36 H12         -1.9130     0.0220    -3.3580 hc         1 EOG       0.026033
     37 H13         -0.6090     0.9010    -4.1690 hc         1 EOG       0.026033
     38 H14          0.4410     0.0080     4.8440 hn         1 EOG       0.175500
     39 C7           2.1230    -0.0020     3.6870 c          1 EOG       0.591700
@<TRIPOS>BOND
     1     1     2 ar  
     2     1    12 ar  
     3     1    20 1   
     4     2     3 ar  
     5     2    21 1   
     6     3    13 ar  
     7     3    25 1   
     8     4     7 ar  
     9     4    10 ar  
    10     4    14 1   
    11     5     6 ar  
    12     5     9 ar  
    13     5    26 1   
    14     6     7 ar  
    15     6    27 1   
    16     7    24 1   
    17     8    22 1   
    18     8    28 1   
    19     8    29 1   
    20     8    30 1   
    21     9    10 ar  
    22     9    31 1   
    23    10    32 1   
    24    11    12 ar  
    25    11    13 ar  
    26    11    33 1   
    27    12    34 1   
    28    13    39 1   
    29    14    18 2   
    30    14    21 1   
    31    15    16 1   
    32    15    19 2   
    33    15    21 1   
    34    16    17 1   
    35    16    20 2   
    36    17    35 1   
    37    17    36 1   
    38    17    37 1   
    39    18    19 1   
    40    22    38 1   
    41    22    39 1   
    42    23    39 2   
@<TRIPOS>SUBSTRUCTURE
     1 EOG         1 TEMP              0 ****  ****    0 ROOT
