@<TRIPOS>MOLECULE
molecule
    9     8     1     0     0
SMALL
bcc


@<TRIPOS>ATOM
      1 C1           0.0000     0.0000     0.0000 c3         1 EOH       0.138400
      2 C2           1.5300     0.0000     0.0000 c3         1 EOH      -0.091100
      3 O           -0.4750     0.0000     1.3480 oh         1 EOH      -0.612800
      4 H11         -0.3610    -0.8850    -0.5100 h1         1 EOH       0.017700
      5 H12         -0.3610     0.8850    -0.5100 h1         1 EOH       0.017700
      6 H21          1.8910    -0.8850     0.5110 hc         1 EOH       0.043367
      7 H22          1.8910     0.8850     0.5110 hc         1 EOH       0.043367
      8 H23          1.8910    -0.0000    -1.0210 hc         1 EOH       0.043367
      9 HO          -1.4180    -0.0000     1.3490 ho         1 EOH       0.400000
@<TRIPOS>BOND
     1     1     2 1
     2     1     3 1
     3     1     4 1
     4     1     5 1
     5     2     6 1
     6     2     7 1
     7     2     8 1
     8     3     9 1
@<TRIPOS>SUBSTRUCTURE
     1 EOH         1 TEMP              0 ****  ****    0 ROOT
