@<TRIPOS>MOLECULE
EOH
    9     8     1     0     0
SMALL
bcc


@<TRIPOS>ATOM
      1 C1          0.0020   -0.0010   -0.0030 c3        1 EOH      0.131400
      2 C2          1.5130    0.0000    0.0120 c3        1 EOH     -0.097100
      3 O          -0.4340    0.0010    1.3490 oh        1 EOH     -0.602800
      4 H11        -0.3900   -0.9140   -0.5270 h1        1 EOH      0.018700
      5 H12        -0.3910    0.9110   -0.5290 h1        1 EOH      0.018700
      6 H21         1.8950    0.9050    0.5420 hc        1 EOH      0.044367
      7 H22         1.8950   -0.0000   -1.0360 hc        1 EOH      0.044367
      8 H23         1.8960   -0.9030    0.5430 hc        1 EOH      0.044367
      9 HO         -1.3980    0.0000    1.3280 ho        1 EOH      0.398000
@<TRIPOS>BOND
     1    1    2 1   
     2    1    3 1   
     3    1    4 1   
     4    1    5 1   
     5    2    6 1   
     6    2    7 1   
     7    2    8 1   
     8    3    9 1   
@<TRIPOS>SUBSTRUCTURE
     1 EOH         1 TEMP              0 ****  ****    0 ROOT
