@<TRIPOS>MOLECULE
molecule
   40    41     1     0     0
SMALL
bcc


@<TRIPOS>ATOM
      1 C            0.0000     0.0000     0.0000 c3         1 EOI      -0.119100
      2 N            3.4990    -0.1200     1.4460 na         1 EOI      -0.250000
      3 O            2.0070     1.1660    -0.6740 os         1 EOI      -0.393600
      4 P            3.5090     0.0330    -2.5600 p5         1 EOI       1.235300
      5 S            5.2820     1.0690    -2.0350 sh         1 EOI      -0.589200
      6 C1           1.5290     0.0000     0.0000 c3         1 EOI       0.092100
      7 N1           5.4870    -1.0160     1.5290 nc         1 EOI      -0.580100
      8 O1           3.4630    -1.2620    -1.8450 o          1 EOI      -0.745300
      9 P1           4.4610    -1.0210    -5.1620 p5         1 EOI       1.387800
     10 C2           2.0390     0.0000     1.4430 c3         1 EOI       0.067300
     11 N2           4.3040     2.2230     1.1590 nb         1 EOI      -0.773000
     12 O2           3.4920    -0.2300    -4.1490 os         1 EOI      -0.650800
     13 P2           5.0230    -0.6370    -8.0470 p5         1 EOI       1.281900
     14 C3           4.2130    -1.2750     1.5750 cd         1 EOI       0.436700
     15 N3           6.6020     2.4570     1.1040 nb         1 EOI      -0.827000
     16 O3           5.8720    -0.7790    -4.7850 o          1 EOI      -0.807500
     17 C4           5.6720     0.3160     1.3690 ca         1 EOI      -0.169200
     18 O4           4.1470    -2.5980    -5.0830 o          1 EOI      -0.807500
     19 C5           4.3980     0.9070     1.3140 ca         1 EOI       0.476800
     20 O5           4.2100    -0.4980    -6.6640 os         1 EOI      -0.704800
     21 C6           5.3850     2.9680     1.0580 ca         1 EOI       0.723900
     22 O6           4.7320    -2.0810    -8.6980 o          1 EOI      -0.937167
     23 C7           6.7970     1.1510     1.2550 ca         1 EOI       0.799200
     24 O7           4.5480     0.5160    -9.0660 o          1 EOI      -0.937167
     25 C8           2.0590     1.0360    -2.0960 c3         1 EOI      -0.056800
     26 O8           6.4720    -0.4970    -7.7840 o          1 EOI      -0.937167
     27 H           -0.3610     0.1480     1.0110 hc         1 EOI       0.033033
     28 HA          -0.3610    -0.9490    -0.3770 hc         1 EOI       0.033033
     29 HB          -0.3610     0.8010    -0.6330 hc         1 EOI       0.033033
     30 HS           5.5240     2.0170    -2.9320 hs         1 EOI       0.340800
     31 H1           1.8900    -0.8850    -0.5100 h1         1 EOI       0.117700
     32 H2           1.6070    -0.8370     1.9790 h1         1 EOI       0.052200
     33 H2A          1.7520     0.9260     1.9270 h1         1 EOI       0.052200
     34 H3           3.7820    -2.2610     1.6980 h5         1 EOI       0.070800
     35 HN4          8.8180     1.1540     1.7200 hn         1 EOI       0.439300
     36 HN4A         8.2670    -0.2630     0.8860 hn         1 EOI       0.439300
     37 H6           5.2720     4.0380     0.9330 h5         1 EOI       0.038100
     38 H8           1.1560     0.5500    -2.4470 h1         1 EOI       0.072700
     39 H8A          2.1390     2.0180    -2.5460 h1         1 EOI       0.072700
     40 N4           8.0760     0.6260     1.3030 nv         1 EOI      -1.011500
@<TRIPOS>BOND
     1     1     6 1
     2     1    27 1
     3     1    28 1
     4     1    29 1
     5    10     2 1
     6     2    14 1
     7     2    19 1
     8    25     3 1
     9     3     6 1
    10    25     4 1
    11     5     4 1
    12     4    12 1
    13     4     8 2
    14     5    30 1
    15     6    10 1
    16     6    31 1
    17    14     7 2
    18     7    17 1
    19    20     9 1
    20    16     9 1
    21    12     9 1
    22     9    18 1
    23    10    32 1
    24    10    33 1
    25    11    19 ar
    26    11    21 ar
    27    26    13 1
    28    22    13 1
    29    13    24 1
    30    13    20 1
    31    14    34 1
    32    21    15 ar
    33    15    23 ar
    34    19    17 ar
    35    17    23 ar
    36    23    40 1
    37    40    35 1
    38    40    36 1
    39    21    37 1
    40    25    38 1
    41    25    39 1
@<TRIPOS>SUBSTRUCTURE
     1 EOI         1 TEMP              0 ****  ****    0 ROOT
