@<TRIPOS>MOLECULE
molecule
   60    66     1     0     0
SMALL
bcc


@<TRIPOS>ATOM
      1 C4           0.0000     0.0000     0.0000 c3         1 EOJ      -0.083067
      2 C5           1.5300     0.0000     0.0000 c3         1 EOJ       0.136400
      3 C6           2.0400    -2.4980     1.4430 c3         1 EOJ      -0.070733
      4 C7           1.5300    -2.4990     0.0000 c3         1 EOJ      -0.061367
      5 C8           0.0000    -2.4980    -0.0000 c3         1 EOJ      -0.070733
      6 C13          4.7410     4.8890    -2.8220 ca         1 EOJ       0.413600
      7 C15          5.2070     2.8350    -1.6360 ca         1 EOJ      -0.071000
      8 C17          2.9240     3.5340    -2.0460 ca         1 EOJ      -0.110000
      9 C20          7.4250     5.3510    -3.0870 cc         1 EOJ      -0.204600
     10 C22          3.3440     1.4100    -0.8140 c          1 EOJ       0.676700
     11 C26          8.2300     2.2860    -1.3180 ca         1 EOJ      -0.107900
     12 C28          8.3420    -0.1130    -1.3190 ca         1 EOJ      -0.127000
     13 C29          8.3770    -0.1100     0.0640 ca         1 EOJ      -0.094000
     14 C27          8.2680     1.0770    -2.0140 ca         1 EOJ      -0.086000
     15 C12          3.3660     4.6520    -2.6860 ca         1 EOJ      -0.153300
     16 C30          8.3440     1.0850     0.7610 ca         1 EOJ      -0.121000
     17 C16          3.8350     2.6150    -1.5100 ca         1 EOJ      -0.129600
     18 C14          5.6640     3.9670    -2.2890 ca         1 EOJ      -0.098600
     19 C31          8.2710     2.2840     0.0790 ca         1 EOJ       0.055400
     20 C25          8.1520     3.5650    -2.0560 cc         1 EOJ       0.375400
     21 C19          6.4570     6.2430    -3.5950 cc         1 EOJ       0.517600
     22 C9           0.0000    -1.2500     2.1650 c3         1 EOJ      -0.070733
     23 C11          2.0410    -1.2490    -0.7210 c3         1 EOJ      -0.083067
     24 C1           2.0400     0.0000     1.4430 c3         1 EOJ      -0.083067
     25 C2           1.5300    -1.2490     2.1640 c3         1 EOJ      -0.061367
     26 C3          -0.5090    -1.2500     0.7210 c3         1 EOJ      -0.061367
     27 C34          6.8990     7.4940    -4.3100 c3         1 EOJ      -0.139400
     28 N24          9.1730     4.2920    -2.4740 nd         1 EOJ      -0.332700
     29 N23          8.7460     5.3430    -3.0830 nd         1 EOJ      -0.057000
     30 N18          5.1810     5.9980    -3.4550 nd         1 EOJ      -0.686000
     31 N21          7.0170     4.2130    -2.4300 na         1 EOJ      -0.049200
     32 N10          2.0190     1.1960    -0.6900 ns         1 EOJ      -0.572900
     33 O33          4.1340     0.6100    -0.3510 o          1 EOJ      -0.611100
     34 Cl3          8.2300     3.7810     0.9540 cl         1 EOJ      -0.087400
     35 H1          -0.3610     0.8840     0.5110 hc         1 EOJ       0.055033
     36 H2          -0.3610    -0.0000    -1.0210 hc         1 EOJ       0.055033
     37 H3           3.1240    -2.4980     1.4430 hc         1 EOJ       0.043033
     38 H4           1.6790    -3.3830     1.9540 hc         1 EOJ       0.043033
     39 H5           1.8910    -3.3840    -0.5100 hc         1 EOJ       0.051367
     40 H6          -0.3610    -3.3830     0.5100 hc         1 EOJ       0.043033
     41 H7          -0.3610    -2.4980    -1.0210 hc         1 EOJ       0.043033
     42 H8           5.9120     2.1250    -1.2200 ha         1 EOJ       0.177000
     43 H9           1.8600     3.3570    -1.9450 ha         1 EOJ       0.134000
     44 H10          8.3700    -1.0520    -1.8580 ha         1 EOJ       0.141000
     45 H11          8.4350    -1.0470     0.6040 ha         1 EOJ       0.141000
     46 H12          8.2390     1.0720    -3.0970 ha         1 EOJ       0.147000
     47 H13          2.6530     5.3560    -3.0970 ha         1 EOJ       0.159000
     48 H14          8.3740     1.0810     1.8440 ha         1 EOJ       0.150000
     49 H15         -0.3610    -0.3650     2.6750 hc         1 EOJ       0.043033
     50 H16         -0.3610    -2.1340     2.6750 hc         1 EOJ       0.043033
     51 H17          3.1240    -1.2490    -0.7210 hc         1 EOJ       0.055033
     52 H18          1.6800    -1.2490    -1.7430 hc         1 EOJ       0.055033
     53 H19          3.1230     0.0000     1.4440 hc         1 EOJ       0.055033
     54 H20          1.6780     0.8840     1.9540 hc         1 EOJ       0.055033
     55 H21          1.8910    -1.2490     3.1850 hc         1 EOJ       0.051367
     56 H22         -1.5930    -1.2500     0.7210 hc         1 EOJ       0.051367
     57 H23          7.4910     7.2250    -5.1760 hc         1 EOJ       0.066700
     58 H24          7.4950     8.1020    -3.6390 hc         1 EOJ       0.066700
     59 H25          6.0290     8.0550    -4.6280 hc         1 EOJ       0.066700
     60 H26          1.3680     1.8550    -1.0690 hn         1 EOJ       0.313500
@<TRIPOS>BOND
     1    22    26 1
     2    22    25 1
     3    13    12 ar
     4    13    16 ar
     5    26     5 1
     6    26     1 1
     7    25     3 1
     8    25    24 1
     9    12    14 ar
    10    16    19 ar
    11     5     4 1
    12     3     4 1
    13     1     2 1
    14    24     2 1
    15     4    23 1
    16    14    11 ar
    17    33    10 2
    18    19    11 ar
    19    19    34 1
    20     2    23 1
    21     2    32 1
    22    11    20 1
    23    10    32 1
    24    10    17 1
    25     7    17 ar
    26     7    18 ar
    27    20    28 2
    28    20    31 1
    29    17     8 ar
    30    28    29 1
    31    31    18 1
    32    31     9 1
    33    18     6 ar
    34     8    15 ar
    35    29     9 2
    36     9    21 1
    37     6    15 ar
    38     6    30 1
    39    21    30 2
    40    21    27 1
    41     1    35 1
    42     1    36 1
    43     3    37 1
    44     3    38 1
    45     4    39 1
    46     5    40 1
    47     5    41 1
    48     7    42 1
    49     8    43 1
    50    12    44 1
    51    13    45 1
    52    14    46 1
    53    15    47 1
    54    16    48 1
    55    22    49 1
    56    22    50 1
    57    23    51 1
    58    23    52 1
    59    24    53 1
    60    24    54 1
    61    25    55 1
    62    26    56 1
    63    27    57 1
    64    27    58 1
    65    27    59 1
    66    32    60 1
@<TRIPOS>SUBSTRUCTURE
     1 EOJ         1 TEMP              0 ****  ****    0 ROOT
