@<TRIPOS>MOLECULE
EOK
   34    35     1     0     0
SMALL
bcc


@<TRIPOS>ATOM
      1 C10          0.0000     0.0000     0.0000 c2         1 EOK       0.583100
      2 C13         -2.9810     0.0150    -2.1670 c3         1 EOK      -0.046100
      3 C17          3.3640     0.0010     1.3070 c          1 EOK       0.606100
      4 C01          1.3350     1.2580     3.2100 c3         1 EOK      -0.007100
      5 C02          1.1210    -0.0000     2.3660 c3         1 EOK       0.151800
      6 C03          1.3350    -1.2380     3.1990 ca         1 EOK      -0.092300
      7 C04          1.3560    -1.1470     4.5790 ca         1 EOK      -0.080500
      8 C05          1.5530    -2.2820     5.3430 ca         1 EOK      -0.094000
      9 C06          1.7260    -3.5080     4.7280 ca         1 EOK      -0.088000
     10 C07          1.7040    -3.5980     3.3490 ca         1 EOK      -0.094000
     11 C08          1.5030    -2.4650     2.5850 ca         1 EOK      -0.080500
     12 C12         -2.1000     0.0090    -0.9440 c          1 EOK       0.716500
     13 C18          4.2140    -0.1120     0.0680 c3         1 EOK      -0.074100
     14 N11         -0.7770     0.0050    -1.0780 ne         1 EOK      -0.697100
     15 N15          1.3490     0.0000     0.0000 nu         1 EOK      -0.291200
     16 N16          2.0190     0.0000     1.2050 n          1 EOK      -0.110200
     17 O14         -2.5990     0.0090     0.1640 o          1 EOK      -0.619100
     18 O19          3.8890     0.0920     2.3960 o          1 EOK      -0.595100
     19 S09         -0.5450    -0.0010     1.6300 ss         1 EOK      -0.195300
     20 H1          -2.9280     0.9850    -2.6460 hc         1 EOK       0.022367
     21 H2          -4.0050    -0.1890    -1.8760 hc         1 EOK       0.022367
     22 H3          -2.6440    -0.7480    -2.8590 hc         1 EOK       0.022367
     23 H4           1.4440     2.1160     2.5580 hc         1 EOK       0.032033
     24 H5           0.4810     1.4050     3.8610 hc         1 EOK       0.032033
     25 H6           2.2300     1.1430     3.8090 hc         1 EOK       0.032033
     26 H7           1.2210    -0.1860     5.0610 ha         1 EOK       0.108500
     27 H8           1.5700    -2.2100     6.4240 ha         1 EOK       0.104500
     28 H9           1.8820    -4.3970     5.3270 ha         1 EOK       0.103000
     29 H10          1.8380    -4.5590     2.8670 ha         1 EOK       0.104500
     30 H11          1.4860    -2.5360     1.5040 ha         1 EOK       0.108500
     31 H12          3.9640    -1.0240    -0.4600 hc         1 EOK       0.030033
     32 H13          4.0290     0.7400    -0.5760 hc         1 EOK       0.030033
     33 H14          5.2600    -0.1320     0.3480 hc         1 EOK       0.030033
     34 H15          1.8570     0.0000    -0.8630 hn         1 EOK       0.323800
@<TRIPOS>BOND
     1     1    14 2   
     2     1    15 1   
     3     1    19 1   
     4     2    12 1   
     5     2    20 1   
     6     2    21 1   
     7     2    22 1   
     8     3    13 1   
     9     3    16 1   
    10     3    18 2   
    11     4     5 1   
    12     4    23 1   
    13     4    24 1   
    14     4    25 1   
    15     5     6 1   
    16     5    16 1   
    17     5    19 1   
    18     6     7 ar  
    19     6    11 ar  
    20     7     8 ar  
    21     7    26 1   
    22     8     9 ar  
    23     8    27 1   
    24     9    10 ar  
    25     9    28 1   
    26    10    11 ar  
    27    10    29 1   
    28    11    30 1   
    29    12    14 1   
    30    12    17 2   
    31    13    31 1   
    32    13    32 1   
    33    13    33 1   
    34    15    16 1   
    35    15    34 1   
@<TRIPOS>SUBSTRUCTURE
     1 EOK         1 TEMP              0 ****  ****    0 ROOT
