@<TRIPOS>MOLECULE
molecule
   34    35     1     0     0
SMALL
bcc


@<TRIPOS>ATOM
      1 C10          0.0000     0.0000     0.0000 c2         1 EOK       0.731100
      2 C13         -2.9810     0.0150    -2.1670 c3         1 EOK      -0.139100
      3 C17          3.3640     0.0010     1.3070 c          1 EOK       0.681100
      4 C01          1.3350     1.2580     3.2100 c3         1 EOK      -0.090100
      5 C02          1.1210    -0.0000     2.3660 c3         1 EOK       0.200800
      6 C03          1.3350    -1.2380     3.1990 ca         1 EOK      -0.088300
      7 C04          1.3560    -1.1470     4.5790 ca         1 EOK      -0.102500
      8 C05          1.5530    -2.2820     5.3430 ca         1 EOK      -0.125500
      9 C06          1.7260    -3.5080     4.7280 ca         1 EOK      -0.115000
     10 C07          1.7040    -3.5980     3.3490 ca         1 EOK      -0.125500
     11 C08          1.5030    -2.4650     2.5850 ca         1 EOK      -0.102500
     12 C12         -2.1000     0.0090    -0.9440 c          1 EOK       0.709500
     13 C18          4.2140    -0.1120     0.0680 c3         1 EOK      -0.174100
     14 N11         -0.7770     0.0050    -1.0780 ne         1 EOK      -0.794100
     15 N15          1.3490     0.0000     0.0000 nu         1 EOK      -0.624200
     16 N16          2.0190     0.0000     1.2050 n          1 EOK      -0.317200
     17 O14         -2.5990     0.0090     0.1640 o          1 EOK      -0.612100
     18 O19          3.8890     0.0920     2.3960 o          1 EOK      -0.561100
     19 S09         -0.5450    -0.0010     1.6300 ss         1 EOK      -0.075300
     20 H1          -4.0210     0.0040    -1.8640 hc         1 EOK       0.061367
     21 H2          -2.7720    -0.8630    -2.7670 hc         1 EOK       0.061367
     22 H3          -2.7840     0.9060    -2.7510 hc         1 EOK       0.061367
     23 H4           0.4960     1.3880     3.8830 hc         1 EOK       0.061700
     24 H5           1.4140     2.1210     2.5600 hc         1 EOK       0.061700
     25 H6           2.2470     1.1560     3.7860 hc         1 EOK       0.061700
     26 H7           1.2210    -0.1860     5.0610 ha         1 EOK       0.134000
     27 H8           1.5700    -2.2100     6.4240 ha         1 EOK       0.133000
     28 H9           1.8820    -4.3970     5.3270 ha         1 EOK       0.132000
     29 H10          1.8380    -4.5590     2.8670 ha         1 EOK       0.133000
     30 H11          1.4860    -2.5360     1.5040 ha         1 EOK       0.134000
     31 H12          3.9630    -1.0240    -0.4610 hc         1 EOK       0.068033
     32 H13          5.2600    -0.1320     0.3480 hc         1 EOK       0.068033
     33 H14          4.0290     0.7400    -0.5750 hc         1 EOK       0.068033
     34 H15          1.8570     0.0000    -0.8630 hn         1 EOK       0.483800
@<TRIPOS>BOND
     1     2    12 1
     2    12    17 2
     3    12    14 1
     4    14     1 2
     5     1    19 1
     6     1    15 1
     7    19     5 1
     8    15    16 1
     9     4     5 1
    10     5    16 1
    11     5     6 1
    12    16     3 1
    13     6     7 ar
    14     6    11 ar
    15    13     3 1
    16     3    18 2
    17     7     8 ar
    18    11    10 ar
    19    10     9 ar
    20     8     9 ar
    21     2    20 1
    22     2    21 1
    23     2    22 1
    24     4    23 1
    25     4    24 1
    26     4    25 1
    27     7    26 1
    28     8    27 1
    29     9    28 1
    30    10    29 1
    31    11    30 1
    32    13    31 1
    33    13    32 1
    34    13    33 1
    35    15    34 1
@<TRIPOS>SUBSTRUCTURE
     1 EOK         1 TEMP              0 ****  ****    0 ROOT
