@<TRIPOS>MOLECULE
molecule
   24    24     1     0     0
SMALL
bcc


@<TRIPOS>ATOM
      1 C1           0.0000     0.0000     0.0000 ca         1 EOL      -0.209000
      2 O1          -0.6690     0.0000     3.5840 oh         1 EOL      -0.504100
      3 C2           1.3820     0.0000     0.0000 ca         1 EOL      -0.049300
      4 O2          -2.0530    -0.0010     1.2020 os         1 EOL      -0.313900
      5 C3          -0.6930    -0.0010     1.2000 ca         1 EOL       0.127100
      6 C4           2.0770     0.0000     1.1940 ca         1 EOL      -0.147000
      7 C5           0.0070    -0.0010     2.4040 ca         1 EOL       0.075100
      8 C6           1.3920    -0.0010     2.3960 ca         1 EOL      -0.128000
      9 C7           2.1340     0.0010    -1.3070 c3         1 EOL      -0.003900
     10 C8           2.3840     1.4210    -1.7420 c2         1 EOL      -0.166200
     11 C9           3.6040     1.8220    -2.0000 c2         1 EOL      -0.221000
     12 C10         -2.7040    -0.0020    -0.0700 c3         1 EOL       0.126700
     13 H1          -0.5420    -0.0000    -0.9380 ha         1 EOL       0.139000
     14 HO1         -0.6110    -0.8530     3.9800 ho         1 EOL       0.414000
     15 H4           3.1600    -0.0000     1.1900 ha         1 EOL       0.135000
     16 H6           1.9390    -0.0010     3.3310 ha         1 EOL       0.142000
     17 H7           1.5480    -0.5100    -2.0610 hc         1 EOL       0.054200
     18 H7A          3.0810    -0.5090    -1.1790 hc         1 EOL       0.054200
     19 H8           1.5540     2.1110    -1.8420 ha         1 EOL       0.127000
     20 H9           3.7840     2.8430    -2.3130 ha         1 EOL       0.113000
     21 H9A          4.4340     1.1320    -1.9010 ha         1 EOL       0.113000
     22 H10         -2.4190     0.8860    -0.6220 h1         1 EOL       0.041367
     23 H10A        -3.7770    -0.0100     0.0730 h1         1 EOL       0.041367
     24 H10B        -2.4080    -0.8830    -0.6270 h1         1 EOL       0.041367
@<TRIPOS>BOND
     1     1     3 ar
     2     1     5 ar
     3     2     7 1
     4     3     6 ar
     5     3     9 1
     6     4     5 1
     7     4    12 1
     8     5     7 ar
     9     6     8 ar
    10     7     8 ar
    11     9    10 1
    12    10    11 2
    13     1    13 1
    14     2    14 1
    15     6    15 1
    16     8    16 1
    17     9    17 1
    18     9    18 1
    19    10    19 1
    20    11    20 1
    21    11    21 1
    22    12    22 1
    23    12    23 1
    24    12    24 1
@<TRIPOS>SUBSTRUCTURE
     1 EOL         1 TEMP              0 ****  ****    0 ROOT
