@<TRIPOS>MOLECULE
EOL
   24    24     1     0     0
SMALL
bcc


@<TRIPOS>ATOM
      1 C1          0.1550    0.0040    0.0230 ca        1 EOL     -0.161000
      2 O1         -0.6540   -0.2290    3.6360 oh        1 EOL     -0.496100
      3 C2          1.5530   -0.0410    0.0970 ca        1 EOL     -0.079300
      4 O2         -1.9870   -0.0220    1.2470 os        1 EOL     -0.348900
      5 C3         -0.6020   -0.0580    1.1920 ca        1 EOL      0.044100
      6 C4          2.1810   -0.1450    1.3410 ca        1 EOL     -0.120000
      7 C5          0.0370   -0.1640    2.4500 ca        1 EOL      0.109100
      8 C6          1.4340   -0.2070    2.5150 ca        1 EOL     -0.135000
      9 C7          2.3600    0.0120   -1.1550 c3        1 EOL     -0.005900
     10 C8          2.3130    1.3510   -1.7970 c2        1 EOL     -0.161200
     11 C9          3.3750    1.9580   -2.3210 c2        1 EOL     -0.222000
     12 C10        -2.6580    0.0600   -0.0040 c3        1 EOL      0.122700
     13 H1         -0.3320    0.0860   -0.9590 ha        1 EOL      0.138000
     14 HO1        -1.6010   -0.1890    3.4360 ho        1 EOL      0.436000
     15 H4          3.2790   -0.1780    1.4000 ha        1 EOL      0.137000
     16 H6          1.9230   -0.2890    3.4970 ha        1 EOL      0.152000
     17 H7          3.4230   -0.2810   -0.9370 hc        1 EOL      0.054700
     18 H7A         1.9540   -0.7460   -1.8840 hc        1 EOL      0.054700
     19 H8          1.3150    1.8210   -1.8200 ha        1 EOL      0.122000
     20 H9          4.3820    1.5190   -2.3040 ha        1 EOL      0.112000
     21 H9A         3.3080    2.9410   -2.8040 ha        1 EOL      0.112000
     22 H10        -2.4190   -0.8280   -0.6380 h1        1 EOL      0.045367
     23 H10A       -3.7410    0.0630    0.2810 h1        1 EOL      0.045367
     24 H10B       -2.3870    1.0050   -0.5350 h1        1 EOL      0.045367
@<TRIPOS>BOND
     1    1    3 ar  
     2    1    5 ar  
     3    1   13 1   
     4    2    7 1   
     5    2   14 1   
     6    3    6 ar  
     7    3    9 1   
     8    4    5 1   
     9    4   12 1   
    10    5    7 ar  
    11    6    8 ar  
    12    6   15 1   
    13    7    8 ar  
    14    8   16 1   
    15    9   10 1   
    16    9   17 1   
    17    9   18 1   
    18   10   11 2   
    19   10   19 1   
    20   11   20 1   
    21   11   21 1   
    22   12   22 1   
    23   12   23 1   
    24   12   24 1   
@<TRIPOS>SUBSTRUCTURE
     1 EOL         1 TEMP              0 ****  ****    0 ROOT
