@<TRIPOS>MOLECULE
EOM
   12    11     1     0     0
SMALL
bcc


@<TRIPOS>ATOM
      1 O2'         0.1910   -0.5230    0.1730 o         1 EOM     -0.882500
      2 CA'         1.3750    0.0050    0.1550 c3        1 EOM      0.563900
      3 OB'         2.3540   -0.8750    0.8340 os        1 EOM     -0.562600
      4 CC'         1.8740   -1.6010    1.9260 c3        1 EOM      0.162400
      5 CD'         2.2170   -0.9100    3.2360 c3        1 EOM     -0.114100
      6 HA'1        1.4840    1.0120    0.6880 h2        1 EOM     -0.112800
      7 HA'2        1.8780    0.1150   -0.8620 h2        1 EOM     -0.112800
      8 HC'1        0.7600   -1.7490    1.8500 h1        1 EOM      0.017200
      9 HC'2        2.3810   -2.6060    1.8940 h1        1 EOM      0.017200
     10 HD'1        3.3210   -0.7800    3.3350 hc        1 EOM      0.008367
     11 HD'2        1.7430    0.1000    3.2630 hc        1 EOM      0.008367
     12 HD'3        1.8470   -1.5100    4.1010 hc        1 EOM      0.008367
@<TRIPOS>BOND
     1    1    2 1   
     2    2    3 1   
     3    2    6 1   
     4    2    7 1   
     5    3    4 1   
     6    4    5 1   
     7    4    8 1   
     8    4    9 1   
     9    5   10 1   
    10    5   11 1   
    11    5   12 1   
@<TRIPOS>SUBSTRUCTURE
     1 EOM         1 TEMP              0 ****  ****    0 ROOT
