@<TRIPOS>MOLECULE
molecule
   12    11     1     0     0
SMALL
bcc


@<TRIPOS>ATOM
      1 O2'          0.0000     0.0000     0.0000 o          1 EOM      -0.971500
      2 CA'          1.4280     0.0000     0.0000 c3         1 EOM       0.473900
      3 OB'          1.9050     0.0000     1.3470 os         1 EOM      -0.504600
      4 CC'          1.7800    -1.2620     2.0080 c3         1 EOM       0.162400
      5 CD'          2.3170    -1.1450     3.4360 c3         1 EOM      -0.096100
      6 HA'1         1.7890    -0.8840    -0.5110 h2         1 EOM      -0.064300
      7 HA'2         1.7890     0.8850    -0.5110 h2         1 EOM      -0.064300
      8 HC'1         2.3480    -2.0100     1.4680 h1         1 EOM       0.007700
      9 HC'2         0.7370    -1.5520     2.0370 h1         1 EOM       0.007700
     10 HD'1         3.3580    -0.8480     3.4070 hc         1 EOM       0.016367
     11 HD'2         1.7440    -0.4020     3.9780 hc         1 EOM       0.016367
     12 HD'3         2.2290    -2.1030     3.9340 hc         1 EOM       0.016367
@<TRIPOS>BOND
     1     1     2 1
     2     2     3 1
     3     2     6 1
     4     2     7 1
     5     3     4 1
     6     4     5 1
     7     4     8 1
     8     4     9 1
     9     5    10 1
    10     5    11 1
    11     5    12 1
@<TRIPOS>SUBSTRUCTURE
     1 EOM         1 TEMP              0 ****  ****    0 ROOT
