@<TRIPOS>MOLECULE
EON
   39    40     1     0     0
SMALL
bcc


@<TRIPOS>ATOM
      1 C2           0.0000     0.0000     0.0000 ca         1 EON       0.132100
      2 C3           1.3930     0.0000     0.0000 ca         1 EON      -0.138400
      3 C4           2.0820     0.0000     1.2040 ca         1 EON      -0.082000
      4 C5           1.3860    -0.0000     2.3980 ca         1 EON      -0.120000
      5 C6           0.0040    -0.0000     2.3970 ca         1 EON      -0.056000
      6 C7          -0.6910     0.0040     1.2010 ca         1 EON      -0.186000
      7 C9           3.3510    -0.4900    -1.2640 c          1 EON       0.546100
      8 N10          4.0690    -0.3860    -2.4000 ns         1 EON      -0.048100
      9 C14          7.4090    -1.6100    -1.4570 ca         1 EON      -0.229500
     10 C15          7.8380    -2.1560    -2.6530 ca         1 EON       0.012000
     11 C16          7.0210    -2.1170    -3.7670 ca         1 EON      -0.156000
     12 C17          5.7690    -1.5300    -3.6890 ca         1 EON       0.194100
     13 O20          7.6030    -1.5630     1.0920 o          1 EON      -0.490300
     14 C1          -2.1080     0.0000    -1.1010 c3         1 EON       0.250700
     15 O1          -0.6820     0.0010    -1.1780 os         1 EON      -0.327900
     16 N8           2.0970    -0.0000    -1.2120 ns         1 EON       0.007900
     17 O11          3.8350    -1.0240    -0.2840 o          1 EON      -0.696100
     18 C12          5.3350    -0.9810    -2.4850 ca         1 EON      -0.097400
     19 C13          6.1580    -1.0280    -1.3680 ca         1 EON       0.014000
     20 O21          9.3520    -2.7450    -0.2450 o          1 EON      -0.490300
     21 N22          9.3730    -0.2840    -0.0580 nz         1 EON      -0.136500
     22 H1           3.1650    -0.0000     1.2080 ha         1 EON       0.144000
     23 H2           1.9250    -0.0020     3.3370 ha         1 EON       0.109000
     24 H3          -0.5370     0.0010     3.3360 ha         1 EON       0.108000
     25 H4          -1.7740     0.0040     1.2030 ha         1 EON       0.127000
     26 H5           3.7170     0.1530    -3.1660 hn         1 EON       0.178500
     27 H6           8.8180    -2.6130    -2.7180 ha         1 EON       0.124000
     28 H7           7.3600    -2.5450    -4.7020 ha         1 EON       0.137000
     29 H8          -2.5230    -0.0020    -2.1020 h1         1 EON       0.002700
     30 H9          -2.4410     0.8850    -0.5730 h1         1 EON       0.002700
     31 H10         -2.4410    -0.8840    -0.5700 h1         1 EON       0.002700
     32 H11          1.6750     0.3830    -2.0350 hn         1 EON       0.171500
     33 H12          5.8240    -0.6010    -0.4300 ha         1 EON       0.172000
     34 H13          5.4090    -1.0450    -5.4860 ho         1 EON       0.422000
     35 H14          8.7730     0.5170    -0.0220 hn         1 EON       0.312133
     36 H15          9.9260    -0.2490    -0.8910 hn         1 EON       0.312133
     37 O18          4.9640    -1.4910    -4.7840 oh         1 EON      -0.472100
     38 H223         9.9740    -0.2850     0.7430 hn         1 EON       0.312133
     39 S19          8.4550    -1.6620    -0.0410 sy         1 EON       0.931200
@<TRIPOS>BOND
     1     1     2 ar  
     2     1     6 ar  
     3     1    15 1   
     4     2     3 ar  
     5     2    16 1   
     6     3     4 ar  
     7     3    22 1   
     8     4     5 ar  
     9     4    23 1   
    10     5     6 ar  
    11     5    24 1   
    12     6    25 1   
    13     7     8 1   
    14     7    16 1   
    15     7    17 2   
    16     8    18 1   
    17     8    26 1   
    18     9    10 ar  
    19     9    19 ar  
    20     9    39 1   
    21    10    11 ar  
    22    10    27 1   
    23    11    12 ar  
    24    11    28 1   
    25    12    18 ar  
    26    12    37 1   
    27    13    39 2   
    28    14    15 1   
    29    14    29 1   
    30    14    30 1   
    31    14    31 1   
    32    16    32 1   
    33    18    19 ar  
    34    19    33 1   
    35    20    39 2   
    36    21    35 1   
    37    21    36 1   
    38    21    38 1   
    39    21    39 1   
    40    34    37 1   
@<TRIPOS>SUBSTRUCTURE
     1 EON         1 TEMP              0 ****  ****    0 ROOT
