@<TRIPOS>MOLECULE
molecule
   39    40     1     0     0
SMALL
bcc


@<TRIPOS>ATOM
      1 C2           0.0000     0.0000     0.0000 ca         1 EON       0.117100
      2 C3           1.3930     0.0000     0.0000 ca         1 EON       0.027600
      3 C4           2.0820     0.0000     1.2040 ca         1 EON      -0.106000
      4 C5           1.3860    -0.0000     2.3980 ca         1 EON      -0.146000
      5 C6           0.0040    -0.0000     2.3970 ca         1 EON      -0.095000
      6 C7          -0.6910     0.0040     1.2010 ca         1 EON      -0.196000
      7 C9           3.3510    -0.4900    -1.2640 c          1 EON       0.783100
      8 N10          4.0690    -0.3860    -2.4000 ns         1 EON      -0.486100
      9 C14          7.4090    -1.6100    -1.4570 ca         1 EON      -0.345500
     10 C15          7.8380    -2.1560    -2.6530 ca         1 EON      -0.031000
     11 C16          7.0210    -2.1170    -3.7670 ca         1 EON      -0.170000
     12 C17          5.7690    -1.5300    -3.6890 ca         1 EON       0.176100
     13 O20          7.6030    -1.5630     1.0920 o          1 EON      -0.513300
     14 C1          -2.1080     0.0000    -1.1010 c3         1 EON       0.130700
     15 O1          -0.6820     0.0010    -1.1780 os         1 EON      -0.345900
     16 N8           2.0970    -0.0000    -1.2120 ns         1 EON      -0.455100
     17 O11          3.8350    -1.0240    -0.2840 o          1 EON      -0.647100
     18 C12          5.3350    -0.9810    -2.4850 ca         1 EON       0.061600
     19 C13          6.1580    -1.0280    -1.3680 ca         1 EON      -0.019000
     20 O21          9.3520    -2.7450    -0.2450 o          1 EON      -0.513300
     21 N22          9.3730    -0.2840    -0.0580 nz         1 EON      -0.807500
     22 H1           3.1650    -0.0000     1.2080 ha         1 EON       0.163000
     23 H2           1.9250    -0.0020     3.3370 ha         1 EON       0.138000
     24 H3          -0.5370     0.0010     3.3360 ha         1 EON       0.140000
     25 H4          -1.7740     0.0040     1.2030 ha         1 EON       0.146000
     26 H5           3.7170     0.1530    -3.1660 hn         1 EON       0.339500
     27 H6           8.8180    -2.6130    -2.7180 ha         1 EON       0.156000
     28 H7           7.3600    -2.5450    -4.7020 ha         1 EON       0.170000
     29 H8          -2.5230    -0.0020    -2.1020 h1         1 EON       0.047367
     30 H9          -2.4410     0.8850    -0.5730 h1         1 EON       0.047367
     31 H10         -2.4410    -0.8840    -0.5700 h1         1 EON       0.047367
     32 H11          1.6750     0.3830    -2.0350 hn         1 EON       0.336500
     33 H12          5.8240    -0.6010    -0.4300 ha         1 EON       0.196000
     34 H13          5.4090    -1.0450    -5.4860 ho         1 EON       0.441000
     35 H14          8.7730     0.5170    -0.0220 hn         1 EON       0.490800
     36 H15          9.9260    -0.2490    -0.8910 hn         1 EON       0.490800
     37 O18          4.9640    -1.4910    -4.7840 oh         1 EON      -0.487100
     38 H223         9.9740    -0.2850     0.7430 hn         1 EON       0.490800
     39 S19          8.4550    -1.6620    -0.0410 sy         1 EON       1.225200
@<TRIPOS>BOND
     1     4     5 ar
     2     4     3 ar
     3     5     6 ar
     4     3     2 ar
     5    17     7 2
     6     6     1 ar
     7     2     1 ar
     8     2    16 1
     9     7    16 1
    10     7     8 1
    11     1    15 1
    12     8    18 1
    13    15    14 1
    14    37    12 1
    15    18    12 ar
    16    18    19 ar
    17    12    11 ar
    18    19     9 ar
    19    11    10 ar
    20     9    10 ar
    21     9    39 1
    22    21    39 1
    23    39    20 2
    24    39    13 2
    25     3    22 1
    26     4    23 1
    27     5    24 1
    28     6    25 1
    29     8    26 1
    30    10    27 1
    31    11    28 1
    32    14    29 1
    33    14    30 1
    34    14    31 1
    35    16    32 1
    36    19    33 1
    37    37    34 1
    38    21    35 1
    39    21    36 1
    40    38    21 1
@<TRIPOS>SUBSTRUCTURE
     1 EON         1 TEMP              0 ****  ****    0 ROOT
