@<TRIPOS>MOLECULE
EOP
   28    27     1     0     0
SMALL
bcc


@<TRIPOS>ATOM
      1 OAD          0.0000     0.0000     0.0000 o          1 EOP      -0.745500
      2 PAR          1.6110     0.0000     0.0000 p5         1 EOP       0.434700
      3 OAH          2.1470     0.0000     1.5180 o          1 EOP      -0.745500
      4 OAG          2.1030    -1.2090    -0.6970 o          1 EOP      -0.745500
      5 CAL          2.2190     1.4880    -0.8600 c3         1 EOP      -0.103600
      6 CAP          3.7200     1.4270    -0.9680 c          1 EOP       0.639600
      7 OAB          4.2400     0.7520    -1.8310 o          1 EOP      -0.728600
      8 NAN          4.4870     2.1210    -0.1040 ns         1 EOP      -0.227900
      9 CAJ          5.9470     2.0620    -0.2090 c3         1 EOP       0.039500
     10 CAI          6.5730     2.9340     0.8810 c3         1 EOP       0.039500
     11 NAM          8.0320     2.8750     0.7770 ns         1 EOP      -0.227900
     12 CAO          8.7990     3.5700     1.6410 c          1 EOP       0.639600
     13 OAA          8.2800     4.2450     2.5040 o          1 EOP      -0.728600
     14 CAK         10.3010     3.5100     1.5330 c3         1 EOP      -0.103600
     15 PAQ         10.9520     2.3420     2.7720 p5         1 EOP       0.434700
     16 OAF         12.5410     2.1780     2.5710 o          1 EOP      -0.745500
     17 OAE         10.6540     2.9070     4.2500 o          1 EOP      -0.745500
     18 OAC         10.2940     1.0260     2.6040 o          1 EOP      -0.745500
     19 HAL1         1.7870     1.5340    -1.8520 hc         1 EOP      -0.002300
     20 HAL2         1.9330     2.3710    -0.3000 hc         1 EOP      -0.002300
     21 HAN          4.0590     2.6920     0.5970 hn         1 EOP       0.169500
     22 HAJ1         6.2550     2.4250    -1.1820 h1         1 EOP       0.008450
     23 HAJ2         6.2770     1.0380    -0.0850 h1         1 EOP       0.008450
     24 HAI1         6.2660     2.5710     1.8550 h1         1 EOP       0.008450
     25 HAI2         6.2440     3.9590     0.7580 h1         1 EOP       0.008450
     26 HAM          8.4600     2.3460     0.0430 hn         1 EOP       0.169500
     27 HAK1        10.5790     3.1750     0.5410 hc         1 EOP      -0.002300
     28 HAK2        10.7160     4.4940     1.7120 hc         1 EOP      -0.002300
@<TRIPOS>BOND
     1     1     2 1   
     2     2     3 1   
     3     2     4 1   
     4     2     5 1   
     5     5     6 1   
     6     5    19 1   
     7     5    20 1   
     8     6     7 2   
     9     6     8 1   
    10     8     9 1   
    11     8    21 1   
    12     9    10 1   
    13     9    22 1   
    14     9    23 1   
    15    10    11 1   
    16    10    24 1   
    17    10    25 1   
    18    11    12 1   
    19    11    26 1   
    20    12    13 2   
    21    12    14 1   
    22    14    15 1   
    23    14    27 1   
    24    14    28 1   
    25    15    16 1   
    26    15    17 1   
    27    15    18 1   
@<TRIPOS>SUBSTRUCTURE
     1 EOP         1 TEMP              0 ****  ****    0 ROOT
