@<TRIPOS>MOLECULE
EOS
   52    55     1     0     0
SMALL
bcc


@<TRIPOS>ATOM
      1 C4           0.0000     0.0000     0.0000 ca         1 EOS      -0.033000
      2 C5           1.3940     0.0000     0.0000 ca         1 EOS      -0.142600
      3 C6           2.0970     0.0000     1.2120 ca         1 EOS      -0.076000
      4 C8          -1.9460    -0.0000     3.6380 cc         1 EOS       0.486600
      5 C17         -2.8550    -0.0000    -1.1750 ca         1 EOS      -0.059900
      6 C20         -2.4920    -0.0060    -3.9240 ca         1 EOS      -0.182000
      7 C21         -2.5840    -1.2050    -3.2390 ca         1 EOS      -0.047000
      8 C22         -2.7650    -1.2080    -1.8700 ca         1 EOS      -0.059600
      9 C26         -2.2230     3.7010    -5.9220 c3         1 EOS      -0.059700
     10 C28         -1.8930     3.6160    -7.4140 c3         1 EOS       0.007900
     11 C1           1.4280     0.0000     2.3980 ca         1 EOS      -0.134300
     12 C18         -2.7680     1.2070    -1.8690 ca         1 EOS      -0.111000
     13 C2           0.0250    -0.0010     2.4170 ca         1 EOS       0.399600
     14 C3          -0.6870     0.0010     1.2030 ca         1 EOS      -0.295600
     15 C19         -2.5860     1.1990    -3.2420 ca         1 EOS       0.162100
     16 C16         -3.0480     0.0000     0.2900 cc         1 EOS       0.162400
     17 C9          -2.7110    -0.0000     2.4510 cc         1 EOS      -0.404600
     18 C11          2.1320     0.0000    -1.2790 c          1 EOS       0.591700
     19 C12         -2.6430    -0.0010     4.9730 c3         1 EOS      -0.043400
     20 C27         -3.5690     4.4060    -5.7370 c3         1 EOS       0.007900
     21 C30          4.2110     0.0010    -2.5500 c3         1 EOS       0.087300
     22 C25         -2.3020     2.2910    -5.3350 c3         1 EOS       0.201400
     23 N15         -4.2050    -0.0010     0.9290 nd         1 EOS      -0.304700
     24 N14         -4.0080     0.0000     2.2000 nd         1 EOS      -0.032000
     25 N7          -0.6390    -0.0010     3.5930 nd         1 EOS      -0.599000
     26 N10         -2.0690     0.0000     1.2330 na         1 EOS       0.504800
     27 N29          3.4790     0.0000    -1.2800 ns         1 EOS      -0.192900
     28 O13          1.5230     0.0010    -2.3320 o          1 EOS      -0.645100
     29 O24         -2.4950     2.3720    -3.9220 os         1 EOS      -0.300900
     30 Cl3         -2.8800    -2.7140    -1.0140 cl         1 EOS      -0.014400
     31 H1          -0.5440     0.0000    -0.9370 ha         1 EOS       0.156000
     32 H2           3.1800    -0.0000     1.2050 ha         1 EOS       0.106000
     33 H3          -2.3500    -0.0090    -4.9980 ha         1 EOS       0.125000
     34 H4          -2.5130    -2.1420    -3.7770 ha         1 EOS       0.116000
     35 H5          -1.4480     4.2600    -5.4120 hc         1 EOS       0.035700
     36 H6          -2.6550     3.0350    -7.9190 hc         1 EOS       0.005700
     37 H7          -1.8610     4.6130    -7.8340 hc         1 EOS       0.005700
     38 H8          -0.9300     3.1380    -7.5430 hc         1 EOS       0.005700
     39 H9           1.9810     0.0000     3.3300 ha         1 EOS       0.126000
     40 H10         -2.8390     2.1470    -1.3360 ha         1 EOS       0.126000
     41 H11         -3.2640    -0.8840     5.0560 hc         1 EOS       0.026033
     42 H12         -3.2610     0.8850     5.0580 hc         1 EOS       0.026033
     43 H13         -1.9040    -0.0030     5.7660 hc         1 EOS       0.026033
     44 H14         -3.6790     4.7080    -4.7020 hc         1 EOS       0.005700
     45 H15         -3.6090     5.2810    -6.3740 hc         1 EOS       0.005700
     46 H16         -4.3710     3.7290    -6.0020 hc         1 EOS       0.005700
     47 H17          5.2760    -0.0010    -2.3520 h1         1 EOS       0.011367
     48 H18          3.9500     0.8860    -3.1170 h1         1 EOS       0.011367
     49 H19          3.9470    -0.8830    -3.1190 h1         1 EOS       0.011367
     50 H20         -1.3810     1.7610    -5.5440 h1         1 EOS       0.006200
     51 H21         -3.1340     1.7600    -5.7830 h1         1 EOS       0.006200
     52 H22          3.9800     0.0010    -0.4140 hn         1 EOS       0.175500
@<TRIPOS>BOND
     1     1     2 ar  
     2     1    14 ar  
     3     1    31 1   
     4     2     3 ar  
     5     2    18 1   
     6     3    11 ar  
     7     3    32 1   
     8     4    17 1   
     9     4    19 1   
    10     4    25 2   
    11     5     8 ar  
    12     5    12 ar  
    13     5    16 1   
    14     6     7 ar  
    15     6    15 ar  
    16     6    33 1   
    17     7     8 ar  
    18     7    34 1   
    19     8    30 1   
    20     9    10 1   
    21     9    20 1   
    22     9    22 1   
    23     9    35 1   
    24    10    36 1   
    25    10    37 1   
    26    10    38 1   
    27    11    13 ar  
    28    11    39 1   
    29    12    15 ar  
    30    12    40 1   
    31    13    14 ar  
    32    13    25 1   
    33    14    26 1   
    34    15    29 1   
    35    16    23 2   
    36    16    26 1   
    37    17    24 2   
    38    17    26 1   
    39    18    27 1   
    40    18    28 2   
    41    19    41 1   
    42    19    42 1   
    43    19    43 1   
    44    20    44 1   
    45    20    45 1   
    46    20    46 1   
    47    21    27 1   
    48    21    47 1   
    49    21    48 1   
    50    21    49 1   
    51    22    29 1   
    52    22    50 1   
    53    22    51 1   
    54    23    24 1   
    55    27    52 1   
@<TRIPOS>SUBSTRUCTURE
     1 EOS         1 TEMP              0 ****  ****    0 ROOT
