@<TRIPOS>MOLECULE
molecule
   52    55     1     0     0
SMALL
bcc


@<TRIPOS>ATOM
      1 C4           0.0000     0.0000     0.0000 ca         1 EOS      -0.068000
      2 C5           1.3940     0.0000     0.0000 ca         1 EOS      -0.129600
      3 C6           2.0970     0.0000     1.2120 ca         1 EOS      -0.111000
      4 C8          -1.9460    -0.0000     3.6380 cc         1 EOS       0.518600
      5 C17         -2.8550    -0.0000    -1.1750 ca         1 EOS      -0.069900
      6 C20         -2.4920    -0.0060    -3.9240 ca         1 EOS      -0.191000
      7 C21         -2.5840    -1.2050    -3.2390 ca         1 EOS      -0.080000
      8 C22         -2.7650    -1.2080    -1.8700 ca         1 EOS       0.014400
      9 C26         -2.2230     3.7010    -5.9220 c3         1 EOS      -0.075700
     10 C28         -1.8930     3.6160    -7.4140 c3         1 EOS      -0.087600
     11 C1           1.4280     0.0000     2.3980 ca         1 EOS      -0.153300
     12 C18         -2.7680     1.2070    -1.8690 ca         1 EOS      -0.123000
     13 C2           0.0250    -0.0010     2.4170 ca         1 EOS       0.414600
     14 C3          -0.6870     0.0010     1.2030 ca         1 EOS      -0.098600
     15 C19         -2.5860     1.1990    -3.2420 ca         1 EOS       0.151100
     16 C16         -3.0480     0.0000     0.2900 cc         1 EOS       0.376400
     17 C9          -2.7110    -0.0000     2.4510 cc         1 EOS      -0.204600
     18 C11          2.1320     0.0000    -1.2790 c          1 EOS       0.672700
     19 C12         -2.6430    -0.0010     4.9730 c3         1 EOS      -0.139400
     20 C27         -3.5690     4.4060    -5.7370 c3         1 EOS      -0.087600
     21 C30          4.2110     0.0010    -2.5500 c3         1 EOS       0.104300
     22 C25         -2.3020     2.2910    -5.3350 c3         1 EOS       0.140400
     23 N15         -4.2050    -0.0010     0.9290 nd         1 EOS      -0.330700
     24 N14         -4.0080     0.0000     2.2000 nd         1 EOS      -0.056000
     25 N7          -0.6390    -0.0010     3.5930 nd         1 EOS      -0.686000
     26 N10         -2.0690     0.0000     1.2330 na         1 EOS      -0.048200
     27 N29          3.4790     0.0000    -1.2800 ns         1 EOS      -0.583900
     28 O13          1.5230     0.0010    -2.3320 o          1 EOS      -0.603100
     29 O24         -2.4950     2.3720    -3.9220 os         1 EOS      -0.323900
     30 Cl3         -2.8800    -2.7140    -1.0140 cl         1 EOS      -0.092400
     31 H1          -0.5440     0.0000    -0.9370 ha         1 EOS       0.178000
     32 H2           3.1800    -0.0000     1.2050 ha         1 EOS       0.133000
     33 H3          -2.3500    -0.0090    -4.9980 ha         1 EOS       0.146000
     34 H4          -2.5130    -2.1420    -3.7770 ha         1 EOS       0.151000
     35 H5          -1.4480     4.2600    -5.4120 hc         1 EOS       0.064700
     36 H6          -2.6550     3.0350    -7.9190 hc         1 EOS       0.039033
     37 H7          -1.8610     4.6130    -7.8340 hc         1 EOS       0.039033
     38 H8          -0.9300     3.1380    -7.5430 hc         1 EOS       0.039033
     39 H9           1.9810     0.0000     3.3300 ha         1 EOS       0.159000
     40 H10         -2.8390     2.1470    -1.3360 ha         1 EOS       0.160000
     41 H11         -3.2640    -0.8840     5.0560 hc         1 EOS       0.067367
     42 H12         -3.2610     0.8850     5.0580 hc         1 EOS       0.067367
     43 H13         -1.9040    -0.0030     5.7660 hc         1 EOS       0.067367
     44 H14         -3.6790     4.7080    -4.7020 hc         1 EOS       0.039033
     45 H15         -3.6090     5.2810    -6.3740 hc         1 EOS       0.039033
     46 H16         -4.3710     3.7290    -6.0020 hc         1 EOS       0.039033
     47 H17          5.2760    -0.0010    -2.3520 h1         1 EOS       0.044033
     48 H18          3.9500     0.8860    -3.1170 h1         1 EOS       0.044033
     49 H19          3.9470    -0.8830    -3.1190 h1         1 EOS       0.044033
     50 H20         -1.3810     1.7610    -5.5440 h1         1 EOS       0.039200
     51 H21         -3.1340     1.7600    -5.7830 h1         1 EOS       0.039200
     52 H22          3.9800     0.0010    -0.4140 hn         1 EOS       0.314500
@<TRIPOS>BOND
     1    29    22 1
     2    29    15 1
     3     9    22 1
     4     9    20 1
     5     9    10 1
     6     6    15 ar
     7     6     7 ar
     8    15    12 ar
     9     7     8 ar
    10    12     5 ar
    11     8     5 ar
    12     8    30 1
    13    28    18 2
    14     5    16 1
    15    21    27 1
    16    18    27 1
    17    18     2 1
    18    16    23 2
    19    16    26 1
    20     1     2 ar
    21     1    14 ar
    22    23    24 1
    23     2     3 ar
    24    26    14 1
    25    26    17 1
    26    14    13 ar
    27     3    11 ar
    28    24    17 2
    29    17     4 1
    30    13    11 ar
    31    13    25 1
    32     4    25 2
    33     4    19 1
    34     1    31 1
    35     3    32 1
    36     6    33 1
    37     7    34 1
    38     9    35 1
    39    10    36 1
    40    10    37 1
    41    10    38 1
    42    11    39 1
    43    12    40 1
    44    19    41 1
    45    19    42 1
    46    19    43 1
    47    20    44 1
    48    20    45 1
    49    20    46 1
    50    21    47 1
    51    21    48 1
    52    21    49 1
    53    22    50 1
    54    22    51 1
    55    27    52 1
@<TRIPOS>SUBSTRUCTURE
     1 EOS         1 TEMP              0 ****  ****    0 ROOT
