@<TRIPOS>MOLECULE
molecule
   58    58     1     0     0
SMALL
bcc


@<TRIPOS>ATOM
      1 C15          0.0000     0.0000     0.0000 ca         1 EOT      -0.079400
      2 C16          1.3870     0.0000     0.0000 ca         1 EOT      -0.113000
      3 C17          2.0770     0.0000     1.1980 ca         1 EOT      -0.088000
      4 C12          1.3850    -0.0010     2.3950 ca         1 EOT       0.048700
      5 C13          0.0040     0.0010     2.3980 ca         1 EOT      -0.088000
      6 C14         -0.6910     0.0060     1.2040 ca         1 EOT      -0.113000
      7 N3          -0.7010    -0.0010    -1.2100 ns         1 EOT      -0.333100
      8 C18         -0.3130    -0.8110    -2.2130 cs         1 EOT       0.577400
      9 S1           1.0590    -1.8160    -2.0200 s          1 EOT      -0.750400
     10 N4          -1.0050    -0.8320    -3.3700 ns         1 EOT      -0.560900
     11 C19         -0.5830    -1.7130    -4.4620 c3         1 EOT       0.136000
     12 C20         -1.5310    -1.5440    -5.6500 c3         1 EOT       0.113400
     13 O9          -1.5000    -0.1870    -6.0950 oh         1 EOT      -0.597800
     14 C11          2.1410    -0.0000     3.6980 c3         1 EOT      -0.054100
     15 C1           2.2890     1.4360     4.2010 c3         1 EOT       0.177500
     16 C2           2.9290     1.4260     5.5910 c3         1 EOT       0.094800
     17 N1           3.1420     2.1940     3.2760 n3         1 EOT      -0.627600
     18 C9           2.7090     3.5950     3.3540 c3         1 EOT       0.018800
     19 C10          1.4080     3.7610     2.6130 c          1 EOT       0.902100
     20 O7           0.8950     2.8090     2.0750 o          1 EOT      -0.872800
     21 O8           0.8210     4.9650     2.5500 o          1 EOT      -0.872800
     22 C7           4.5060     2.1420     3.8200 c3         1 EOT       0.018800
     23 C8           5.1340     0.8170     3.4760 c          1 EOT       0.902100
     24 O5           4.6140     0.0960     2.6580 o          1 EOT      -0.872800
     25 O6           6.2720     0.4370     4.0770 o          1 EOT      -0.872800
     26 N2           1.9880     0.8470     6.5590 n3         1 EOT      -0.603600
     27 C5           2.7640     0.5330     7.7660 c3         1 EOT       0.037800
     28 C6           1.9360    -0.3270     8.6850 c          1 EOT       0.901100
     29 O3           0.8520    -0.7240     8.3290 o          1 EOT      -0.870300
     30 O4           2.4030    -0.6540     9.9010 o          1 EOT      -0.870300
     31 C3           1.0500     1.9150     6.9280 c3         1 EOT       0.037800
     32 C4          -0.3540     1.4920     6.5800 c          1 EOT       0.901100
     33 O1          -0.5630     0.3820     6.1540 o          1 EOT      -0.870300
     34 O2          -1.3730     2.3500     6.7450 o          1 EOT      -0.870300
     35 H16          1.9290     0.0620    -0.9360 ha         1 EOT       0.099500
     36 H17          3.1590    -0.0460     1.1980 ha         1 EOT       0.179500
     37 H13         -0.5340    -0.0440     3.3370 ha         1 EOT       0.179500
     38 H14         -1.7740    -0.0340     1.2080 ha         1 EOT       0.099500
     39 HN3         -1.4840     0.6100    -1.3350 hn         1 EOT       0.297500
     40 HN4         -1.8150    -0.2540    -3.4790 hn         1 EOT       0.296500
     41 H191        -0.6060    -2.7420    -4.1240 h1         1 EOT       0.069700
     42 H192         0.4250    -1.4560    -4.7650 h1         1 EOT       0.069700
     43 H201        -1.2190    -2.1960    -6.4570 h1         1 EOT       0.012700
     44 H202        -2.5390    -1.8020    -5.3470 h1         1 EOT       0.012700
     45 HO9         -1.8990    -0.1270    -6.9480 ho         1 EOT       0.381000
     46 H111         3.1220    -0.4330     3.5470 hc         1 EOT       0.088200
     47 H112         1.5980    -0.5850     4.4300 hc         1 EOT       0.088200
     48 H1           1.3130     1.9020     4.2570 h1         1 EOT       0.099700
     49 H21          3.1710     2.4400     5.8850 h1         1 EOT       0.022700
     50 H22          3.8340     0.8310     5.5680 h1         1 EOT       0.022700
     51 H91          2.5720     3.8730     4.3920 h1         1 EOT       0.013450
     52 H92          3.4630     4.2310     2.9060 h1         1 EOT       0.013450
     53 H71          5.0960     2.9430     3.3920 h1         1 EOT       0.013450
     54 H72          4.4700     2.2550     4.8970 h1         1 EOT       0.013450
     55 H51          3.6650     0.0010     7.4880 h1         1 EOT       0.009700
     56 H52          3.0300     1.4520     8.2740 h1         1 EOT       0.009700
     57 H31          1.1170     2.1040     7.9920 h1         1 EOT       0.009700
     58 H32          1.3000     2.8190     6.3840 h1         1 EOT       0.009700
@<TRIPOS>BOND
     1     1     2 ar
     2     1     6 ar
     3     1     7 1
     4     2     3 ar
     5     2    35 1
     6     3     4 ar
     7     3    36 1
     8     4     5 ar
     9     4    14 1
    10     5     6 ar
    11     5    37 1
    12     6    38 1
    13     7     8 1
    14     7    39 1
    15     8     9 2
    16     8    10 1
    17    10    11 1
    18    10    40 1
    19    11    12 1
    20    11    41 1
    21    11    42 1
    22    12    13 1
    23    12    43 1
    24    12    44 1
    25    13    45 1
    26    14    15 1
    27    14    46 1
    28    14    47 1
    29    15    16 1
    30    15    17 1
    31    15    48 1
    32    16    26 1
    33    16    49 1
    34    16    50 1
    35    17    18 1
    36    17    22 1
    37    18    19 1
    38    18    51 1
    39    18    52 1
    40    19    20 1
    41    19    21 1
    42    22    23 1
    43    22    53 1
    44    22    54 1
    45    23    24 1
    46    23    25 1
    47    26    27 1
    48    26    31 1
    49    27    28 1
    50    27    55 1
    51    27    56 1
    52    28    29 1
    53    28    30 1
    54    31    32 1
    55    31    57 1
    56    31    58 1
    57    32    33 1
    58    32    34 1
@<TRIPOS>SUBSTRUCTURE
     1 EOT         1 TEMP              0 ****  ****    0 ROOT
