@<TRIPOS>MOLECULE
molecule
   30    30     1     0     0
SMALL
bcc


@<TRIPOS>ATOM
      1 O3P          0.0000     0.0000     0.0000 o          1 EOW      -0.903833
      2 P            1.6110     0.0000     0.0000 p5         1 EOW       1.170900
      3 O1P          2.1470     0.0000     1.5180 o          1 EOW      -0.903833
      4 O2P          2.1040    -1.2090    -0.6970 o          1 EOW      -0.903833
      5 O4P          2.1470     1.3140    -0.7590 os         1 EOW      -0.590200
      6 C5A          1.9280     1.5520    -2.1510 c3         1 EOW       0.216700
      7 C5           2.5580     2.8660    -2.5410 ca         1 EOW      -0.133600
      8 C6           3.2230     3.6280    -1.5990 ca         1 EOW       0.466200
      9 N1           3.7770     4.7780    -1.9290 nb         1 EOW      -0.715000
     10 C4           2.4800     3.3190    -3.8470 ca         1 EOW      -0.086300
     11 C4A          1.7680     2.5140    -4.9030 c3         1 EOW      -0.063800
     12 C3           3.0760     4.5370    -4.1610 ca         1 EOW       0.004800
     13 O3           3.0270     5.0220    -5.4290 oh         1 EOW      -0.591100
     14 C2           3.7220     5.2490    -3.1600 ca         1 EOW       0.315600
     15 C2A          4.3720     6.5690    -3.4840 c3         1 EOW      -0.370700
     16 C1           5.8220     6.3330    -3.9090 c3         1 EOW      -0.086300
     17 C7           6.4570     7.6220    -4.2260 c1         1 EOW      -0.102100
     18 C8           6.9520     8.6520    -4.4970 c1         1 EOW      -0.172500
     19 H3           0.8710     1.7490    -2.0220 h1         1 EOW       0.066700
     20 H4           2.3240     0.7370    -2.7450 h1         1 EOW       0.066700
     21 H5           3.8960     3.3190    -0.8080 h4         1 EOW       0.057100
     22 H6           0.8840     2.9430    -5.3580 hc         1 EOW       0.042367
     23 H7           2.2590     1.9720    -5.7020 hc         1 EOW       0.042367
     24 H8           1.3620     1.7580    -4.2420 hc         1 EOW       0.042367
     25 H9           2.4470     5.7020    -5.7320 ho         1 EOW       0.427000
     26 H10          5.3750     6.3320    -3.1510 hc         1 EOW       0.183200
     27 H11          4.1330     6.8550    -4.5020 hc         1 EOW       0.183200
     28 H12          6.1980     5.4030    -3.4980 hc         1 EOW       0.089200
     29 H13          5.9210     5.9010    -4.8980 hc         1 EOW       0.089200
     30 H14          7.1420     9.7170    -4.5500 ha         1 EOW       0.160500
@<TRIPOS>BOND
     1     4     2 1
     2     8     9 ar
     3     8     7 ar
     4     9    14 ar
     5     2     1 1
     6     2     5 1
     7     2     3 1
     8     6     5 1
     9     6     7 1
    10     7    10 ar
    11    14    15 1
    12    14    12 ar
    13    15    16 1
    14    16    17 1
    15    10    12 ar
    16    10    11 1
    17    12    13 1
    18    17    18 3
    19     6    19 1
    20     6    20 1
    21     8    21 1
    22    11    22 1
    23    11    23 1
    24    11    24 1
    25    13    25 1
    26    15    26 1
    27    15    27 1
    28    16    28 1
    29    16    29 1
    30    18    30 1
@<TRIPOS>SUBSTRUCTURE
     1 EOW         1 TEMP              0 ****  ****    0 ROOT
