@<TRIPOS>MOLECULE
molecule
    9     8     1     0     0
SMALL
bcc


@<TRIPOS>ATOM
      1 O            0.0000     0.0000     0.0000 oh         1 EOX      -0.610800
      2 C1           1.4200     0.0000     0.0000 c3         1 EOX       0.140400
      3 C2           1.9130     0.0000     1.4310 c3         1 EOX      -0.093100
      4 H11          1.7830    -0.8850    -0.5090 h1         1 EOX       0.015700
      5 H12          1.7830     0.8850    -0.5090 h1         1 EOX       0.015700
      6 H21          1.5480     0.8850     1.9390 hc         1 EOX       0.044033
      7 H22          2.9960     0.0000     1.4400 hc         1 EOX       0.044033
      8 H23          1.5480    -0.8850     1.9390 hc         1 EOX       0.044033
      9 HO1         -0.3140    -0.0000    -0.8890 ho         1 EOX       0.400000
@<TRIPOS>BOND
     1     1     2 1
     2     2     3 1
     3     2     4 1
     4     2     5 1
     5     3     6 1
     6     3     7 1
     7     3     8 1
     8     9     1 1
@<TRIPOS>SUBSTRUCTURE
     1 EOX         1 TEMP              0 ****  ****    0 ROOT
