@<TRIPOS>MOLECULE
EOY
   73    79     1     0     0
SMALL
bcc


@<TRIPOS>ATOM
      1 C4           0.0000     0.0000     0.0000 ca         1 EOY      -0.034000
      2 C5           1.3950     0.0000     0.0000 ca         1 EOY      -0.144600
      3 C6           2.0980     0.0000     1.2110 ca         1 EOY      -0.075000
      4 C8          -1.9430    -0.0020     3.6390 cc         1 EOY       0.485600
      5 C17         -2.8550    -0.0010    -1.1730 ca         1 EOY      -0.058900
      6 C20         -2.4940    -0.0070    -3.9220 ca         1 EOY      -0.183000
      7 C21         -2.5850    -1.2050    -3.2370 ca         1 EOY      -0.047000
      8 C22         -2.7650    -1.2100    -1.8680 ca         1 EOY      -0.059600
      9 C26         -2.2270     3.7010    -5.9200 c3         1 EOY      -0.059700
     10 C28         -1.8980     3.6160    -7.4120 c3         1 EOY       0.007900
     11 C1           1.4290    -0.0010     2.3980 ca         1 EOY      -0.135300
     12 C18         -2.7680     1.2050    -1.8680 ca         1 EOY      -0.112000
     13 C2           0.0270    -0.0010     2.4180 ca         1 EOY       0.398600
     14 C3          -0.6860    -0.0010     1.2030 ca         1 EOY      -0.295600
     15 C19         -2.5880     1.1990    -3.2410 ca         1 EOY       0.162100
     16 C16         -3.0480    -0.0010     0.2920 cc         1 EOY       0.162400
     17 C9          -2.7100    -0.0020     2.4530 cc         1 EOY      -0.403600
     18 C11          2.1310     0.0010    -1.2800 c          1 EOY       0.598700
     19 C33          4.2320     0.0020    -5.4810 c3         1 EOY      -0.019400
     20 C35          6.1080    -1.2470    -4.4010 c3         1 EOY      -0.019400
     21 C38          6.1070     1.2510    -4.4020 c3         1 EOY      -0.019400
     22 C39          3.8400    -1.2470    -3.3530 c3         1 EOY      -0.042400
     23 C31          3.8390     1.2500    -3.3530 c3         1 EOY      -0.042400
     24 C37          5.7150     0.0020    -2.2730 c3         1 EOY      -0.042400
     25 C34          4.6030    -1.2470    -4.6790 c3         1 EOY      -0.032033
     26 C32          4.6020     1.2510    -4.6790 c3         1 EOY      -0.032033
     27 C36          6.4780     0.0020    -3.6000 c3         1 EOY      -0.032033
     28 C30          4.2100     0.0010    -2.5520 c3         1 EOY       0.024400
     29 C12         -2.6400    -0.0030     4.9760 c3         1 EOY      -0.042400
     30 C27         -3.5730     4.4060    -5.7350 c3         1 EOY       0.007900
     31 C25         -2.3050     2.2900    -5.3340 c3         1 EOY       0.201400
     32 N15         -4.2050    -0.0020     0.9320 nd         1 EOY      -0.305700
     33 N14         -4.0060    -0.0010     2.2030 nd         1 EOY      -0.032000
     34 N7          -0.6380    -0.0020     3.5930 nd         1 EOY      -0.598000
     35 N10         -2.0680    -0.0010     1.2350 na         1 EOY       0.502800
     36 N29          3.4800     0.0020    -1.2820 ns         1 EOY      -0.182900
     37 O13          1.5220     0.0010    -2.3330 o          1 EOY      -0.650100
     38 O24         -2.4970     2.3720    -3.9190 os         1 EOY      -0.299900
     39 Cl3         -2.8790    -2.7150    -1.0120 cl         1 EOY      -0.013400
     40 H1          -0.5440    -0.0000    -0.9370 ha         1 EOY       0.155000
     41 H2           3.1810     0.0000     1.2040 ha         1 EOY       0.107000
     42 H3          -2.3530    -0.0100    -4.9960 ha         1 EOY       0.125000
     43 H4          -2.5130    -2.1420    -3.7760 ha         1 EOY       0.116000
     44 H5          -1.4520     4.2600    -5.4100 hc         1 EOY       0.035700
     45 H6          -1.8650     4.6140    -7.8320 hc         1 EOY       0.005867
     46 H7          -0.9350     3.1380    -7.5420 hc         1 EOY       0.005867
     47 H8          -2.6600     3.0370    -7.9170 hc         1 EOY       0.005867
     48 H9           1.9830    -0.0010     3.3290 ha         1 EOY       0.126000
     49 H10         -2.8390     2.1460    -1.3340 ha         1 EOY       0.126000
     50 H11          4.7730     0.0020    -6.4200 hc         1 EOY       0.016867
     51 H12          3.1670     0.0020    -5.6780 hc         1 EOY       0.016867
     52 H13          6.6480    -1.2460    -5.3400 hc         1 EOY       0.016867
     53 H14          6.3710    -2.1310    -3.8340 hc         1 EOY       0.016867
     54 H15          6.3690     2.1360    -3.8340 hc         1 EOY       0.016867
     55 H16          6.6470     1.2510    -5.3410 hc         1 EOY       0.016867
     56 H17          2.7740    -1.2480    -3.5500 hc         1 EOY       0.031533
     57 H18          4.1020    -2.1320    -2.7860 hc         1 EOY       0.031533
     58 H19          2.7740     1.2500    -3.5490 hc         1 EOY       0.031533
     59 H20          4.1020     2.1350    -2.7850 hc         1 EOY       0.031533
     60 H21          5.9770    -0.8830    -1.7060 hc         1 EOY       0.031533
     61 H22          5.9770     0.8860    -1.7050 hc         1 EOY       0.031533
     62 H23          4.3410    -2.1320    -5.2470 hc         1 EOY       0.025367
     63 H24          4.3400     2.1360    -5.2470 hc         1 EOY       0.025367
     64 H25          7.5430     0.0030    -3.4030 hc         1 EOY       0.025367
     65 H26         -1.9010     0.0020     5.7680 hc         1 EOY       0.026033
     66 H27         -3.2550    -0.8900     5.0610 hc         1 EOY       0.026033
     67 H28         -3.2640     0.8790     5.0580 hc         1 EOY       0.026033
     68 H29         -4.3760     3.7170    -5.9670 hc         1 EOY       0.005867
     69 H30         -3.6270     5.2600    -6.3980 hc         1 EOY       0.005867
     70 H31         -3.6680     4.7390    -4.7080 hc         1 EOY       0.005867
     71 H32         -3.1370     1.7590    -5.7810 h1         1 EOY       0.006700
     72 H33         -1.3840     1.7610    -5.5430 h1         1 EOY       0.006700
     73 H34          3.9810    -0.0070    -0.4160 hn         1 EOY       0.178500
@<TRIPOS>BOND
     1     1     2 ar  
     2     1    14 ar  
     3     1    40 1   
     4     2     3 ar  
     5     2    18 1   
     6     3    11 ar  
     7     3    41 1   
     8     4    17 1   
     9     4    29 1   
    10     4    34 2   
    11     5     8 ar  
    12     5    12 ar  
    13     5    16 1   
    14     6     7 ar  
    15     6    15 ar  
    16     6    42 1   
    17     7     8 ar  
    18     7    43 1   
    19     8    39 1   
    20     9    10 1   
    21     9    30 1   
    22     9    31 1   
    23     9    44 1   
    24    10    45 1   
    25    10    46 1   
    26    10    47 1   
    27    11    13 ar  
    28    11    48 1   
    29    12    15 ar  
    30    12    49 1   
    31    13    14 ar  
    32    13    34 1   
    33    14    35 1   
    34    15    38 1   
    35    16    32 2   
    36    16    35 1   
    37    17    33 2   
    38    17    35 1   
    39    18    36 1   
    40    18    37 2   
    41    19    25 1   
    42    19    26 1   
    43    19    50 1   
    44    19    51 1   
    45    20    25 1   
    46    20    27 1   
    47    20    52 1   
    48    20    53 1   
    49    21    26 1   
    50    21    27 1   
    51    21    54 1   
    52    21    55 1   
    53    22    25 1   
    54    22    28 1   
    55    22    56 1   
    56    22    57 1   
    57    23    26 1   
    58    23    28 1   
    59    23    58 1   
    60    23    59 1   
    61    24    27 1   
    62    24    28 1   
    63    24    60 1   
    64    24    61 1   
    65    25    62 1   
    66    26    63 1   
    67    27    64 1   
    68    28    36 1   
    69    29    65 1   
    70    29    66 1   
    71    29    67 1   
    72    30    68 1   
    73    30    69 1   
    74    30    70 1   
    75    31    38 1   
    76    31    71 1   
    77    31    72 1   
    78    32    33 1   
    79    36    73 1   
@<TRIPOS>SUBSTRUCTURE
     1 EOY         1 TEMP              0 ****  ****    0 ROOT
