@<TRIPOS>MOLECULE
molecule
   34    34     1     0     0
SMALL
bcc


@<TRIPOS>ATOM
      1 OAD          0.0000     0.0000     0.0000 o          1 EOZ      -0.911500
      2 PAX          1.6100     0.0000     0.0000 p5         1 EOZ       1.044200
      3 OAH          2.1470     0.0000     1.5180 o          1 EOZ      -0.911500
      4 OAG          2.1040    -1.2090    -0.6970 o          1 EOZ      -0.911500
      5 CAN          2.2180     1.4880    -0.8600 c3         1 EOZ      -0.302100
      6 CAS          1.8200     1.4270    -2.3110 c          1 EOZ       0.699100
      7 OAB          0.6930     1.7310    -2.6440 o          1 EOZ      -0.629100
      8 NAP          2.7140     1.0340    -3.2400 ns         1 EOZ      -0.479100
      9 CAU          2.3130     0.8640    -4.5700 ca         1 EOZ       0.060100
     10 CAK          1.0660     0.3250    -4.8550 ca         1 EOZ      -0.147000
     11 CAL          3.1620     1.2350    -5.6020 ca         1 EOZ      -0.163000
     12 CAW          2.7610     1.0650    -6.9280 ca         1 EOZ      -0.124600
     13 CAR          3.6630     1.4590    -8.0300 c          1 EOZ       0.905200
     14 OAA          3.2750     1.2940    -9.3090 o          1 EOZ      -0.892800
     15 OAF          4.7540     1.9310    -7.7830 o          1 EOZ      -0.892800
     16 CAM          1.5050     0.5270    -7.2100 ca         1 EOZ      -0.163000
     17 CAV          0.6640     0.1540    -6.1730 ca         1 EOZ       0.060100
     18 NAQ         -0.5940    -0.3900    -6.4540 ns         1 EOZ      -0.479100
     19 CAT         -0.7480    -1.2280    -7.5000 c          1 EOZ       0.699100
     20 OAC          0.2200    -1.5880    -8.1350 o          1 EOZ      -0.629100
     21 CAO         -2.1220    -1.7160    -7.8780 c3         1 EOZ      -0.302100
     22 PAY         -2.3730    -3.3980    -7.2190 p5         1 EOZ       1.044200
     23 OAI         -3.8850    -3.8670    -7.5100 o          1 EOZ      -0.911500
     24 OAE         -1.3480    -4.4120    -7.9350 o          1 EOZ      -0.911500
     25 OAJ         -2.1280    -3.3960    -5.7600 o          1 EOZ      -0.911500
     26 HAN1         3.2980     1.5330    -0.7830 hc         1 EOZ       0.023450
     27 HAN2         1.7860     2.3700    -0.4030 hc         1 EOZ       0.023450
     28 HAP          3.6750     0.9120    -2.9880 hn         1 EOZ       0.308000
     29 HAK          0.4060     0.0320    -4.0460 ha         1 EOZ       0.184000
     30 HAL          4.1570     1.5990    -5.3800 ha         1 EOZ       0.133000
     31 HAM          1.1900     0.3930    -8.2380 ha         1 EOZ       0.133000
     32 HAQ         -1.3750    -0.1760    -5.8650 hn         1 EOZ       0.308000
     33 HAO1        -2.2150    -1.7340    -8.9580 hc         1 EOZ       0.023450
     34 HAO2        -2.8690    -1.0500    -7.4630 hc         1 EOZ       0.023450
@<TRIPOS>BOND
     1     1     2 1
     2     2     3 1
     3     2     4 1
     4     2     5 1
     5     5     6 1
     6     5    26 1
     7     5    27 1
     8     6     7 2
     9     6     8 1
    10     8     9 1
    11     8    28 1
    12     9    10 ar
    13     9    11 ar
    14    10    17 ar
    15    10    29 1
    16    11    12 ar
    17    11    30 1
    18    12    13 1
    19    12    16 ar
    20    13    14 1
    21    13    15 1
    22    16    17 ar
    23    16    31 1
    24    17    18 1
    25    18    19 1
    26    18    32 1
    27    19    20 2
    28    19    21 1
    29    21    22 1
    30    21    33 1
    31    21    34 1
    32    22    23 1
    33    22    24 1
    34    22    25 1
@<TRIPOS>SUBSTRUCTURE
     1 EOZ         1 TEMP              0 ****  ****    0 ROOT
