@<TRIPOS>MOLECULE
molecule
   73    75     1     0     0
SMALL
bcc


@<TRIPOS>ATOM
      1 C13          0.0000     0.0000     0.0000 cc         1 EP       -0.164400
      2 S1           1.7940     0.0000     0.0000 ss         1 EP       -0.315300
      3 C15          1.6770     0.0000     1.7700 cc         1 EP        0.517700
      4 C16          2.8790     0.0020     2.6610 c3         1 EP       -0.128400
      5 N20          0.4960    -0.0320     2.2080 nd         1 EP       -0.690000
      6 C12         -0.5530    -0.0030     1.2230 cd         1 EP        0.432100
      7 C10         -1.9840     0.0390     1.5540 cf         1 EP       -0.545800
      8 C5          -2.8330     0.9360     1.0400 c2         1 EP        0.067600
      9 C6          -2.3770     2.0460     0.1140 c3         1 EP       -0.136900
     10 C3          -4.3210     0.9160     1.3500 c3         1 EP        0.191300
     11 C21         -4.6620     1.7780     2.5930 c3         1 EP       -0.057400
     12 C24         -3.9840     1.2370     3.8770 cx         1 EP        0.046100
     13 O26         -4.5460     0.0210     4.2820 op         1 EP       -0.368600
     14 C27         -4.7860     1.0150     5.2410 cx         1 EP        0.056100
     15 C32         -6.2740     1.4380     5.3620 c3         1 EP       -0.064400
     16 C35         -7.2940     0.3670     4.8660 c3         1 EP       -0.074400
     17 C38         -7.3320    -0.8990     5.7740 c3         1 EP       -0.073400
     18 C41         -8.5020    -1.8890     5.4500 c3         1 EP       -0.087700
     19 C43         -8.8430    -2.7560     6.6930 c3         1 EP       -0.081100
     20 C47         -8.3130    -2.7560     4.1540 c3         1 EP        0.170100
     21 O49         -9.5620    -3.3580     3.7630 oh         1 EP       -0.596800
     22 C51         -7.2390    -3.8970     4.2030 c3         1 EP       -0.153700
     23 C53         -7.7830    -5.2760     4.6820 c3         1 EP       -0.071100
     24 C57         -6.7300    -4.1180     2.7870 c          1 EP        0.563100
     25 O58         -7.5510    -4.3130     1.9050 o          1 EP       -0.505100
     26 C59         -5.2390    -4.0680     2.4620 c3         1 EP       -0.151000
     27 C64         -4.4740    -2.9880     3.2770 c3         1 EP       -0.079600
     28 C60         -4.6270    -5.4630     2.7830 c3         1 EP       -0.079600
     29 C68         -5.0610    -3.7640     0.9350 c3         1 EP        0.179100
     30 O70         -5.6180    -4.8760     0.2060 oh         1 EP       -0.585800
     31 C72         -5.7000    -2.4160     0.4710 c3         1 EP       -0.156400
     32 C75         -4.7830    -1.2160     0.4840 c          1 EP        0.640100
     33 O2          -4.8980    -0.3950     1.5400 os         1 EP       -0.369900
     34 O76         -4.0150    -1.0100    -0.4440 o          1 EP       -0.549000
     35 H13         -0.5870     0.0100    -0.9100 h4         1 EP        0.180000
     36 H161         3.0730     1.0120     3.0030 hc         1 EP        0.062033
     37 H162         3.7370    -0.3650     2.1110 hc         1 EP        0.062033
     38 H163         2.6960    -0.6390     3.5150 hc         1 EP        0.062033
     39 H10         -1.2770     0.7810     1.9050 ha         1 EP        0.343000
     40 H61         -3.1720     2.7730     0.0020 hc         1 EP        0.059033
     41 H62         -1.5020     2.5290     0.5330 hc         1 EP        0.059033
     42 H63         -2.1300     1.6280    -0.8550 hc         1 EP        0.059033
     43 H3          -4.8250     1.3650     0.5030 h1         1 EP        0.055700
     44 H211        -5.7360     1.7800     2.7360 hc         1 EP        0.063700
     45 H212        -4.3270     2.7930     2.4200 hc         1 EP        0.063700
     46 H24         -2.9030     1.2130     3.9300 h1         1 EP        0.098700
     47 H27         -4.1920     0.8900     6.1390 h1         1 EP        0.094700
     48 H321        -6.4850     1.6560     6.4020 hc         1 EP        0.046700
     49 H322        -6.4210     2.3430     4.7850 hc         1 EP        0.046700
     50 H351        -7.0240     0.0660     3.8610 hc         1 EP        0.046200
     51 H352        -8.2820     0.8100     4.8440 hc         1 EP        0.046200
     52 H381        -7.4280    -0.5790     6.8050 hc         1 EP        0.046700
     53 H382        -6.3930    -1.4290     5.6650 hc         1 EP        0.046700
     54 H41         -9.3730    -1.2700     5.2680 hc         1 EP        0.038700
     55 H431        -9.1930    -2.1160     7.4940 hc         1 EP        0.037700
     56 H432        -7.9570    -3.2880     7.0160 hc         1 EP        0.037700
     57 H433        -9.6180    -3.4680     6.4350 hc         1 EP        0.037700
     58 H47         -8.0200    -2.0780     3.3610 h1         1 EP        0.027700
     59 H49        -10.0510    -2.7510     3.2330 ho         1 EP        0.399000
     60 H51         -6.4170    -3.5930     4.8390 hc         1 EP        0.068700
     61 H531        -7.1450    -5.6620     5.4680 hc         1 EP        0.044700
     62 H532        -7.7910    -5.9700     3.8500 hc         1 EP        0.044700
     63 H533        -8.7900    -5.1550     5.0610 hc         1 EP        0.044700
     64 H641        -3.5070    -2.8100     2.8220 hc         1 EP        0.048867
     65 H642        -5.0460    -2.0680     3.2830 hc         1 EP        0.048867
     66 H643        -4.3360    -3.3340     4.2940 hc         1 EP        0.048867
     67 H601        -4.5450    -5.5840     3.8570 hc         1 EP        0.048867
     68 H602        -5.2670    -6.2390     2.3800 hc         1 EP        0.048867
     69 H603        -3.6430    -5.5380     2.3350 hc         1 EP        0.048867
     70 H68         -3.9990    -3.7210     0.7230 h1         1 EP        0.045700
     71 H70         -5.1260    -5.0110    -0.5870 ho         1 EP        0.397000
     72 H721        -6.0700    -2.5470    -0.5390 hc         1 EP        0.079700
     73 H722        -6.5440    -2.2030     1.1170 hc         1 EP        0.079700
@<TRIPOS>BOND
     1     1     2 1
     2     1     6 2
     3     1    35 1
     4     2     3 1
     5     3     4 1
     6     3     5 2
     7     4    36 1
     8     4    37 1
     9     4    38 1
    10     5     6 1
    11     6     7 1
    12     7     8 2
    13     7    39 1
    14     8     9 1
    15     8    10 1
    16     9    40 1
    17     9    41 1
    18     9    42 1
    19    10    11 1
    20    10    33 1
    21    10    43 1
    22    11    12 1
    23    11    44 1
    24    11    45 1
    25    12    13 1
    26    12    14 1
    27    12    46 1
    28    13    14 1
    29    14    15 1
    30    14    47 1
    31    15    16 1
    32    15    48 1
    33    15    49 1
    34    16    17 1
    35    16    50 1
    36    16    51 1
    37    17    18 1
    38    17    52 1
    39    17    53 1
    40    18    19 1
    41    18    20 1
    42    18    54 1
    43    19    55 1
    44    19    56 1
    45    19    57 1
    46    20    21 1
    47    20    22 1
    48    20    58 1
    49    21    59 1
    50    22    23 1
    51    22    24 1
    52    22    60 1
    53    23    61 1
    54    23    62 1
    55    23    63 1
    56    24    25 2
    57    24    26 1
    58    26    27 1
    59    26    28 1
    60    26    29 1
    61    27    64 1
    62    27    65 1
    63    27    66 1
    64    28    67 1
    65    28    68 1
    66    28    69 1
    67    29    30 1
    68    29    31 1
    69    29    70 1
    70    30    71 1
    71    31    32 1
    72    31    72 1
    73    31    73 1
    74    32    33 1
    75    32    34 2
@<TRIPOS>SUBSTRUCTURE
     1 EP          1 TEMP              0 ****  ****    0 ROOT
