@<TRIPOS>MOLECULE
EP
   73    75     1     0     0
SMALL
bcc


@<TRIPOS>ATOM
      1 C13        -0.0010   -0.0960    0.4590 cc        1 EP      -0.246400
      2 S1          1.6030   -0.4080    0.7880 ss        1 EP      -0.108300
      3 C15         1.2580   -0.5500    2.4750 cc        1 EP       0.403700
      4 C16         2.3370   -0.8430    3.4400 c3        1 EP      -0.132400
      5 N20        -0.0250   -0.3760    2.7880 nd        1 EP      -0.624000
      6 C12        -0.7610   -0.1090    1.6280 cd        1 EP       0.389100
      7 C10        -2.2010    0.0830    1.6940 cf        1 EP      -0.190800
      8 C5         -2.9090    0.9540    0.9560 c2        1 EP      -0.132400
      9 C6         -2.3340    1.9130   -0.0150 c3        1 EP      -0.064900
     10 C3         -4.4070    1.0140    1.0670 c3        1 EP       0.192300
     11 C21        -4.8990    1.8240    2.2700 c3        1 EP      -0.071400
     12 C24        -4.2360    1.4650    3.5630 cx        1 EP       0.064100
     13 O26        -4.5070    0.1620    4.1060 os        1 EP      -0.400600
     14 C27        -4.9880    1.2960    4.8450 cx        1 EP       0.068100
     15 C32        -6.4730    1.4650    4.9720 c3        1 EP      -0.072400
     16 C35        -7.2660    0.2100    4.6630 c3        1 EP      -0.075400
     17 C38        -7.0000   -0.8990    5.6610 c3        1 EP      -0.081400
     18 C41        -8.0950   -1.9550    5.6840 c3        1 EP      -0.060700
     19 C43        -7.9820   -2.8020    6.9310 c3        1 EP      -0.089100
     20 C47        -8.1120   -2.7860    4.3940 c3        1 EP       0.161100
     21 O49        -9.3910   -3.3990    4.3220 oh        1 EP      -0.603800
     22 C51        -6.9820   -3.8250    4.2520 c3        1 EP      -0.196700
     23 C53        -7.3520   -5.1890    4.8000 c3        1 EP      -0.085100
     24 C57        -6.6720   -3.9770    2.7710 c         1 EP       0.576100
     25 O58        -7.6010   -4.2050    1.9860 o         1 EP      -0.540100
     26 C59        -5.2320   -3.8560    2.2950 c3        1 EP      -0.131000
     27 C64        -4.4550   -2.8110    3.0830 c3        1 EP      -0.093100
     28 C60        -4.5690   -5.2180    2.4760 c3        1 EP      -0.093100
     29 C68        -5.1630   -3.4560    0.7980 c3        1 EP       0.173100
     30 O70        -5.5330   -4.5970    0.0380 oh        1 EP      -0.584800
     31 C72        -6.0660   -2.2660    0.4540 c3        1 EP      -0.166400
     32 C75        -5.2890   -1.0270    0.1240 c         1 EP       0.632100
     33 O2         -4.9820   -0.2970    1.2380 os        1 EP      -0.431900
     34 O76        -4.9570   -0.6060   -0.9840 o         1 EP      -0.541000
     35 H13        -0.4010    0.0760   -0.5390 h4        1 EP       0.187000
     36 H161        2.4220   -0.0210    4.1950 hc        1 EP       0.059367
     37 H162        3.3150   -0.9430    2.9080 hc        1 EP       0.059367
     38 H163        2.1270   -1.7980    3.9860 hc        1 EP       0.059367
     39 H10        -2.7320   -0.5580    2.4290 ha        1 EP       0.164000
     40 H61        -2.8850    2.8860    0.0230 hc        1 EP       0.049033
     41 H62        -1.2550    2.1120    0.2000 hc        1 EP       0.049033
     42 H63        -2.4230    1.5010   -1.0520 hc        1 EP       0.049033
     43 H3         -4.8290    1.4670    0.1220 h1        1 EP       0.075700
     44 H211       -6.0090    1.6760    2.3520 hc        1 EP       0.066200
     45 H212       -4.6970    2.9080    2.0590 hc        1 EP       0.066200
     46 H24        -3.1590    1.7370    3.6040 h1        1 EP       0.097700
     47 H27        -4.4350    1.4600    5.7950 h1        1 EP       0.084700
     48 H321       -6.7030    1.8020    6.0190 hc        1 EP       0.049200
     49 H322       -6.8090    2.2870    4.2830 hc        1 EP       0.049200
     50 H351       -8.3570    0.4690    4.6620 hc        1 EP       0.048700
     51 H352       -6.9950   -0.1430    3.6310 hc        1 EP       0.048700
     52 H381       -6.0080   -1.3710    5.4250 hc        1 EP       0.048700
     53 H382       -6.9200   -0.4590    6.6910 hc        1 EP       0.048700
     54 H41        -9.0950   -1.4300    5.7210 hc        1 EP       0.065700
     55 H431       -6.9850   -3.3000    6.9890 hc        1 EP       0.037700
     56 H432       -8.7810   -3.5840    6.9310 hc        1 EP       0.037700
     57 H433       -8.1090   -2.1650    7.8400 hc        1 EP       0.037700
     58 H47        -8.0190   -2.0610    3.5280 h1        1 EP       0.029700
     59 H49        -9.4140   -3.8840    3.4850 ho        1 EP       0.419000
     60 H51        -6.0880   -3.4410    4.8110 hc        1 EP       0.081700
     61 H531       -8.1870   -5.6360    4.2060 hc        1 EP       0.047033
     62 H532       -7.6840   -5.1060    5.8610 hc        1 EP       0.047033
     63 H533       -6.4710   -5.8740    4.7490 hc        1 EP       0.047033
     64 H641       -3.4640   -2.6270    2.5980 hc        1 EP       0.052533
     65 H642       -4.2550   -3.1590    4.1250 hc        1 EP       0.052533
     66 H643       -5.0110   -1.8400    3.1200 hc        1 EP       0.052533
     67 H601       -4.5660   -5.5030    3.5550 hc        1 EP       0.052533
     68 H602       -3.5160   -5.1720    2.1100 hc        1 EP       0.052533
     69 H603       -5.1170   -5.9950    1.8900 hc        1 EP       0.052533
     70 H68        -4.0910   -3.1980    0.5570 h1        1 EP       0.045700
     71 H70        -5.4940   -4.3410   -0.8920 ho        1 EP       0.405000
     72 H721       -6.7550   -2.0320    1.3080 hc        1 EP       0.091700
     73 H722       -6.7040   -2.5200   -0.4350 hc        1 EP       0.091700
@<TRIPOS>BOND
     1    1    2 1   
     2    1    6 2   
     3    1   35 1   
     4    2    3 1   
     5    3    4 1   
     6    3    5 2   
     7    4   36 1   
     8    4   37 1   
     9    4   38 1   
    10    5    6 1   
    11    6    7 1   
    12    7    8 2   
    13    7   39 1   
    14    8    9 1   
    15    8   10 1   
    16    9   40 1   
    17    9   41 1   
    18    9   42 1   
    19   10   11 1   
    20   10   33 1   
    21   10   43 1   
    22   11   12 1   
    23   11   44 1   
    24   11   45 1   
    25   12   13 1   
    26   12   14 1   
    27   12   46 1   
    28   13   14 1   
    29   14   15 1   
    30   14   47 1   
    31   15   16 1   
    32   15   48 1   
    33   15   49 1   
    34   16   17 1   
    35   16   50 1   
    36   16   51 1   
    37   17   18 1   
    38   17   52 1   
    39   17   53 1   
    40   18   19 1   
    41   18   20 1   
    42   18   54 1   
    43   19   55 1   
    44   19   56 1   
    45   19   57 1   
    46   20   21 1   
    47   20   22 1   
    48   20   58 1   
    49   21   59 1   
    50   22   23 1   
    51   22   24 1   
    52   22   60 1   
    53   23   61 1   
    54   23   62 1   
    55   23   63 1   
    56   24   25 2   
    57   24   26 1   
    58   26   27 1   
    59   26   28 1   
    60   26   29 1   
    61   27   64 1   
    62   27   65 1   
    63   27   66 1   
    64   28   67 1   
    65   28   68 1   
    66   28   69 1   
    67   29   30 1   
    68   29   31 1   
    69   29   70 1   
    70   30   71 1   
    71   31   32 1   
    72   31   72 1   
    73   31   73 1   
    74   32   33 1   
    75   32   34 2   
@<TRIPOS>SUBSTRUCTURE
     1 EP          1 TEMP              0 ****  ****    0 ROOT
