@<TRIPOS>MOLECULE
EP0
   53    53     1     0     0
SMALL
bcc


@<TRIPOS>ATOM
      1 O1           0.0000     0.0000     0.0000 o          1 EP0      -0.571000
      2 C1           1.2080     0.0000     0.0000 c          1 EP0       0.651100
      3 C2           1.9610     0.0000     1.3060 c3         1 EP0       0.170100
      4 O2           1.0360    -0.1190     2.3890 oh         1 EP0      -0.543800
      5 C3           2.7430     1.3070     1.4440 c3         1 EP0      -0.104400
      6 C4           3.5910     1.2560     2.6890 c          1 EP0       0.573100
      7 O4           3.5720     0.2710     3.3960 o          1 EP0      -0.681100
      8 C5           1.0900     0.0020    -2.3800 c3         1 EP0       0.224400
      9 C6           2.0230     0.0030    -3.5930 c3         1 EP0      -0.005100
     10 O5           1.8810     0.0020    -1.1610 os         1 EP0      -0.417900
     11 N            4.3710     2.3050     3.0170 ns         1 EP0      -0.142900
     12 CA           5.2480     2.2280     4.1880 c3         1 EP0      -0.069300
     13 C            5.3150     3.5780     4.8550 c          1 EP0       0.598100
     14 O            4.8740     4.5560     4.2900 o          1 EP0      -0.638100
     15 CB           6.6510     1.8080     3.7470 c3         1 EP0      -0.067700
     16 CG1          7.1190     2.7110     2.6040 c3         1 EP0      -0.032400
     17 CG2          6.6220     0.3550     3.2680 c3         1 EP0      -0.008100
     18 CD1          7.4020     4.1140     3.1470 c3         1 EP0      -0.075100
     19 N2           5.8640     3.6970     6.0800 n          1 EP0      -0.101800
     20 CA1          5.8700     4.9170     6.9010 c3         1 EP0      -0.083300
     21 C7           6.6190     6.0120     6.1870 c          1 EP0       0.979600
     22 O3           7.2340     5.7630     5.1770 o          1 EP0      -0.883300
     23 CB1          6.5820     4.5730     8.2270 c3         1 EP0      -0.005400
     24 CG3          6.4360     3.0310     8.3100 c3         1 EP0      -0.048400
     25 CD3          6.5520     2.6240     6.8210 c3         1 EP0       0.033000
     26 OXT          6.6020     7.2640     6.6710 o          1 EP0      -0.883300
     27 H2           2.6490    -0.8360     1.3260 h1         1 EP0       0.030700
     28 HO2          0.9130    -1.0300     2.5990 ho         1 EP0       0.394000
     29 H3           2.0500     2.1370     1.5130 hc         1 EP0       0.043200
     30 H3A          3.3810     1.4390     0.5790 hc         1 EP0       0.043200
     31 H5           0.4600    -0.8790    -2.4100 h1         1 EP0       0.007200
     32 H5A          0.4710     0.8900    -2.4000 h1         1 EP0       0.007200
     33 H6           1.5310     0.4910    -4.4260 hc         1 EP0       0.009700
     34 H6A          2.9330     0.5370    -3.3470 hc         1 EP0       0.009700
     35 H6B          2.2650    -1.0170    -3.8630 hc         1 EP0       0.009700
     36 HN           4.3220     3.1510     2.4840 hn         1 EP0       0.201500
     37 HA           4.8550     1.4990     4.8860 h1         1 EP0       0.066700
     38 HB           7.3350     1.8990     4.5820 hc         1 EP0       0.047700
     39 HG1          6.3460     2.7660     1.8470 hc         1 EP0      -0.000800
     40 HG1A         8.0230     2.3040     2.1680 hc         1 EP0      -0.000800
     41 HG2          7.6260    -0.0520     3.2890 hc         1 EP0       0.003700
     42 HG2A         6.2380     0.3160     2.2560 hc         1 EP0       0.003700
     43 HG2B         5.9830    -0.2280     3.9200 hc         1 EP0       0.003700
     44 HD1          8.1320     4.6050     2.5150 hc         1 EP0       0.042700
     45 HD1A         6.4850     4.6900     3.1540 hc         1 EP0       0.042700
     46 HD1B         7.7900     4.0390     4.1560 hc         1 EP0       0.042700
     47 HA1          4.8520     5.2290     7.1010 h1         1 EP0       0.034700
     48 HB1          6.0830     5.0490     9.0620 hc         1 EP0       0.025200
     49 HB1A         7.6270     4.8560     8.1830 hc         1 EP0       0.025200
     50 HG3          5.4680     2.7570     8.7100 hc         1 EP0       0.009200
     51 HG3A         7.2410     2.5990     8.8910 hc         1 EP0       0.009200
     52 HD3          7.5930     2.5730     6.5260 h1         1 EP0       0.012200
     53 HD3A         6.0580     1.6750     6.6520 h1         1 EP0       0.012200
@<TRIPOS>BOND
     1     1     2 2   
     2     2     3 1   
     3     2    10 1   
     4     3     4 1   
     5     3     5 1   
     6     3    27 1   
     7     4    28 1   
     8     5     6 1   
     9     5    29 1   
    10     5    30 1   
    11     6     7 2   
    12     6    11 1   
    13     8     9 1   
    14     8    10 1   
    15     8    31 1   
    16     8    32 1   
    17     9    33 1   
    18     9    34 1   
    19     9    35 1   
    20    11    12 1   
    21    11    36 1   
    22    12    13 1   
    23    12    15 1   
    24    12    37 1   
    25    13    14 2   
    26    13    19 1   
    27    15    16 1   
    28    15    17 1   
    29    15    38 1   
    30    16    18 1   
    31    16    39 1   
    32    16    40 1   
    33    17    41 1   
    34    17    42 1   
    35    17    43 1   
    36    18    44 1   
    37    18    45 1   
    38    18    46 1   
    39    19    20 1   
    40    19    25 1   
    41    20    21 1   
    42    20    23 1   
    43    20    47 1   
    44    21    22 1   
    45    21    26 1   
    46    23    24 1   
    47    23    48 1   
    48    23    49 1   
    49    24    25 1   
    50    24    50 1   
    51    24    51 1   
    52    25    52 1   
    53    25    53 1   
@<TRIPOS>SUBSTRUCTURE
     1 EP0         1 TEMP              0 ****  ****    0 ROOT
