@<TRIPOS>MOLECULE
molecule
   53    53     1     0     0
SMALL
bcc


@<TRIPOS>ATOM
      1 O1           0.0000     0.0000     0.0000 o          1 EP0      -0.535000
      2 C1           1.2080     0.0000     0.0000 c          1 EP0       0.595100
      3 C2           1.9610     0.0000     1.3060 c3         1 EP0       0.127100
      4 O2           1.0360    -0.1190     2.3890 oh         1 EP0      -0.557800
      5 C3           2.7430     1.3070     1.4440 c3         1 EP0      -0.154400
      6 C4           3.5910     1.2560     2.6890 c          1 EP0       0.666100
      7 O4           3.5720     0.2710     3.3960 o          1 EP0      -0.635100
      8 C5           1.0900     0.0020    -2.3800 c3         1 EP0       0.145400
      9 C6           2.0230     0.0030    -3.5930 c3         1 EP0      -0.097100
     10 O5           1.8810     0.0020    -1.1610 os         1 EP0      -0.435900
     11 N            4.3710     2.3050     3.0170 ns         1 EP0      -0.549900
     12 CA           5.2480     2.2280     4.1880 c3         1 EP0       0.040700
     13 C            5.3150     3.5780     4.8550 c          1 EP0       0.680100
     14 O            4.8740     4.5560     4.2900 o          1 EP0      -0.598100
     15 CB           6.6510     1.8080     3.7470 c3         1 EP0      -0.081700
     16 CG1          7.1190     2.7110     2.6040 c3         1 EP0      -0.087400
     17 CG2          6.6220     0.3550     3.2680 c3         1 EP0      -0.091100
     18 CD1          7.4020     4.1140     3.1470 c3         1 EP0      -0.110100
     19 N2           5.8640     3.6970     6.0800 n          1 EP0      -0.460800
     20 CA1          5.8700     4.9170     6.9010 c3         1 EP0       0.006700
     21 C7           6.6190     6.0120     6.1870 c          1 EP0       0.891600
     22 O3           7.2340     5.7630     5.1770 o          1 EP0      -0.836300
     23 CB1          6.5820     4.5730     8.2270 c3         1 EP0      -0.067400
     24 CG3          6.4360     3.0310     8.3100 c3         1 EP0      -0.109400
     25 CD3          6.5520     2.6240     6.8210 c3         1 EP0       0.093000
     26 OXT          6.6020     7.2640     6.6710 o          1 EP0      -0.836300
     27 H2           2.6490    -0.8360     1.3260 h1         1 EP0       0.071700
     28 HO2          0.9130    -1.0300     2.5990 ho         1 EP0       0.410000
     29 H3           2.0500     2.1370     1.5130 hc         1 EP0       0.080700
     30 H3A          3.3810     1.4390     0.5790 hc         1 EP0       0.080700
     31 H5           0.4600    -0.8790    -2.4100 h1         1 EP0       0.047200
     32 H5A          0.4710     0.8900    -2.4000 h1         1 EP0       0.047200
     33 H6           1.5310     0.4910    -4.4260 hc         1 EP0       0.046367
     34 H6A          2.9330     0.5370    -3.3470 hc         1 EP0       0.046367
     35 H6B          2.2650    -1.0170    -3.8630 hc         1 EP0       0.046367
     36 HN           4.3220     3.1510     2.4840 hn         1 EP0       0.339500
     37 HA           4.8550     1.4990     4.8860 h1         1 EP0       0.086700
     38 HB           7.3350     1.8990     4.5820 hc         1 EP0       0.066700
     39 HG1          6.3460     2.7660     1.8470 hc         1 EP0       0.022700
     40 HG1A         8.0230     2.3040     2.1680 hc         1 EP0       0.022700
     41 HG2          7.6260    -0.0520     3.2890 hc         1 EP0       0.030700
     42 HG2A         6.2380     0.3160     2.2560 hc         1 EP0       0.030700
     43 HG2B         5.9830    -0.2280     3.9200 hc         1 EP0       0.030700
     44 HD1          8.1320     4.6050     2.5150 hc         1 EP0       0.061367
     45 HD1A         6.4850     4.6900     3.1540 hc         1 EP0       0.061367
     46 HD1B         7.7900     4.0390     4.1560 hc         1 EP0       0.061367
     47 HA1          4.8520     5.2290     7.1010 h1         1 EP0       0.055700
     48 HB1          6.0830     5.0490     9.0620 hc         1 EP0       0.054700
     49 HB1A         7.6270     4.8560     8.1830 hc         1 EP0       0.054700
     50 HG3          5.4680     2.7570     8.7100 hc         1 EP0       0.036700
     51 HG3A         7.2410     2.5990     8.8910 hc         1 EP0       0.036700
     52 HD3          7.5930     2.5730     6.5260 h1         1 EP0       0.033700
     53 HD3A         6.0580     1.6750     6.6520 h1         1 EP0       0.033700
@<TRIPOS>BOND
     1    11    12 1
     2    11     6 1
     3    12    13 1
     4    12    15 1
     5    13    14 2
     6    13    19 1
     7    15    16 1
     8    15    17 1
     9    16    18 1
    10    19    20 1
    11    19    25 1
    12    20    21 1
    13    20    23 1
    14    21    22 1
    15    21    26 1
    16    23    24 1
    17    24    25 1
    18     1     2 2
    19     2     3 1
    20     2    10 1
    21     3     4 1
    22     3     5 1
    23     5     6 1
    24     6     7 2
    25     8     9 1
    26     8    10 1
    27    11    36 1
    28    12    37 1
    29    15    38 1
    30    16    39 1
    31    16    40 1
    32    17    41 1
    33    17    42 1
    34    17    43 1
    35    18    44 1
    36    18    45 1
    37    18    46 1
    38    20    47 1
    39    23    48 1
    40    23    49 1
    41    24    50 1
    42    24    51 1
    43    25    52 1
    44    25    53 1
    45     3    27 1
    46     4    28 1
    47     5    29 1
    48     5    30 1
    49     8    31 1
    50     8    32 1
    51     9    33 1
    52     9    34 1
    53     9    35 1
@<TRIPOS>SUBSTRUCTURE
     1 EP0         1 TEMP              0 ****  ****    0 ROOT
