@<TRIPOS>MOLECULE
EP1
   35    35     1     0     0
SMALL
bcc


@<TRIPOS>ATOM
      1 O2S          0.0000     0.0000     0.0000 o          1 EP1      -0.659200
      2 S            1.4210     0.0000     0.0000 s6         1 EP1       0.949800
      3 O3S          2.1740     0.0000     1.2040 o          1 EP1      -0.659200
      4 O1S          1.7580    -1.3530    -0.6100 o          1 EP1      -0.659200
      5 C11          2.0890     1.1770    -1.2070 c3         1 EP1      -0.053600
      6 C10          1.8250     2.6050    -0.7280 c3         1 EP1      -0.007400
      7 C9           2.3880     3.5980    -1.7460 c3         1 EP1       0.132800
      8 N1           2.1340     4.9680    -1.2870 n3         1 EP1      -0.528600
      9 C2           2.9250     5.1580    -0.0670 c3         1 EP1       0.134300
     10 C3           2.8060     6.6080     0.4040 c3         1 EP1       0.131800
     11 N4           3.3690     7.5050    -0.6110 n3         1 EP1      -0.506600
     12 C5           2.5780     7.3160    -1.8330 c3         1 EP1       0.131800
     13 C6           2.6960     5.8650    -2.3030 c3         1 EP1       0.134300
     14 C7           3.1150     8.8760    -0.1510 c3         1 EP1       0.130800
     15 C8           3.9140     9.1430     1.1250 c3         1 EP1       0.215400
     16 O8           5.3070     8.9820     0.8570 oh         1 EP1      -0.570800
     17 H111         1.6080     1.0220    -2.1650 h1         1 EP1       0.048700
     18 H112         3.1560     1.0220    -1.3090 h1         1 EP1       0.048700
     19 H101         2.3050     2.7590     0.2310 hc         1 EP1       0.024700
     20 H102         0.7570     2.7600    -0.6260 hc         1 EP1       0.024700
     21 H91          1.9080     3.4430    -2.7050 h1         1 EP1       0.008200
     22 H92          3.4560     3.4430    -1.8480 h1         1 EP1       0.008200
     23 H21          3.9640     4.9320    -0.2730 h1         1 EP1       0.022450
     24 H22          2.5550     4.4980     0.7080 h1         1 EP1       0.022450
     25 H31          3.3510     6.7300     1.3330 h1         1 EP1       0.013700
     26 H32          1.7620     6.8510     0.5590 h1         1 EP1       0.013700
     27 H51          1.5390     7.5420    -1.6270 h1         1 EP1       0.013700
     28 H52          2.9490     7.9760    -2.6070 h1         1 EP1       0.013700
     29 H61          3.7410     5.6220    -2.4580 h1         1 EP1       0.022450
     30 H62          2.1510     5.7430    -3.2320 h1         1 EP1       0.022450
     31 H71          3.4180     9.5770    -0.9200 h1         1 EP1       0.012700
     32 H72          2.0580     8.9990     0.0520 h1         1 EP1       0.012700
     33 H81          3.7260    10.1550     1.4640 h1         1 EP1      -0.013300
     34 H82          3.6110     8.4430     1.8940 h1         1 EP1      -0.013300
     35 HO8          5.8070     9.4890     1.4760 ho         1 EP1       0.375000
@<TRIPOS>BOND
     1     1     2 1   
     2     2     3 1   
     3     2     4 1   
     4     2     5 1   
     5     5     6 1   
     6     5    17 1   
     7     5    18 1   
     8     6     7 1   
     9     6    19 1   
    10     6    20 1   
    11     7     8 1   
    12     7    21 1   
    13     7    22 1   
    14     8     9 1   
    15     8    13 1   
    16     9    10 1   
    17     9    23 1   
    18     9    24 1   
    19    10    11 1   
    20    10    25 1   
    21    10    26 1   
    22    11    12 1   
    23    11    14 1   
    24    12    13 1   
    25    12    27 1   
    26    12    28 1   
    27    13    29 1   
    28    13    30 1   
    29    14    15 1   
    30    14    31 1   
    31    14    32 1   
    32    15    16 1   
    33    15    33 1   
    34    15    34 1   
    35    16    35 1   
@<TRIPOS>SUBSTRUCTURE
     1 EP1         1 TEMP              0 ****  ****    0 ROOT
