@<TRIPOS>MOLECULE
EP4
   39    41     1     0     0
SMALL
bcc


@<TRIPOS>ATOM
      1 CG           0.0000     0.0000     0.0000 c3         1 EP4       0.180100
      2 N2           1.4700     0.0000     0.0000 n3         1 EP4      -0.533600
      3 CE           1.9950     0.0000     1.3720 c3         1 EP4       0.180100
      4 C5'          1.9960    -1.1380    -0.7650 c3         1 EP4       0.144800
      5 C4'          1.6320    -0.9710    -2.2430 c3         1 EP4       0.157100
      6 O4'          2.3220     0.1640    -2.7900 os         1 EP4      -0.380600
      7 C1'          2.6300    -0.1540    -4.1650 c3         1 EP4       0.148800
      8 N9           3.7360     0.6760    -4.6510 na         1 EP4       0.211000
      9 C4           4.0030     0.9870    -5.9600 ca         1 EP4       0.274800
     10 N3           3.4380     0.6960    -7.1280 nb         1 EP4      -0.670000
     11 C2           3.9430     1.1600    -8.2510 ca         1 EP4       0.687900
     12 N1           5.0200     1.9250    -8.2820 nb         1 EP4      -0.746000
     13 C6           5.6510     2.2680    -7.1650 ca         1 EP4       0.590200
     14 N6           6.7780     3.0720    -7.2080 nv         1 EP4      -0.485500
     15 C5           5.1490     1.7990    -5.9400 ca         1 EP4      -0.244200
     16 N7           5.5170     1.9380    -4.6430 nc         1 EP4      -0.501100
     17 C8           4.6850     1.2830    -3.8850 cd         1 EP4       0.248700
     18 C2'          3.0500    -1.6440    -4.1070 c3         1 EP4       0.127100
     19 O2'          2.8430    -2.2820    -5.3690 oh         1 EP4      -0.536800
     20 C3'          2.0870    -2.2110    -3.0370 c3         1 EP4       0.126100
     21 O3'          0.9660    -2.8450    -3.6580 oh         1 EP4      -0.550800
     22 H1          -0.3610     0.5220    -0.8780 h1         1 EP4       0.002867
     23 H2          -0.3610     0.4990     0.8910 h1         1 EP4       0.002867
     24 H3          -0.3610    -1.0210    -0.0130 h1         1 EP4       0.002867
     25 H5           1.6570     0.8900     1.8880 h1         1 EP4       0.002867
     26 H6           3.0780    -0.0110     1.3440 h1         1 EP4       0.002867
     27 H7           1.6390    -0.8790     1.8950 h1         1 EP4       0.002867
     28 H8           1.5640    -2.0570    -0.3880 h1         1 EP4       0.015700
     29 H9           3.0740    -1.1750    -0.6610 h1         1 EP4       0.015700
     30 H10          0.5630    -0.8380    -2.3520 h1         1 EP4       0.049700
     31 H11          1.7520    -0.0320    -4.7880 h2         1 EP4       0.073700
     32 H12          3.4590     0.9030    -9.1850 h5         1 EP4      -0.004900
     33 H13          7.1250     3.4000    -8.0870 hn         1 EP4       0.275800
     34 H14          7.2460     3.3230    -6.3600 hn         1 EP4       0.275800
     35 H15          4.7400     1.2300    -2.8040 h5         1 EP4       0.040800
     36 H16          4.0800    -1.7390    -3.7840 h1         1 EP4       0.020700
     37 H17          3.5040    -2.9410    -5.5010 ho         1 EP4       0.388000
     38 H18          2.6100    -2.9030    -2.3880 h1         1 EP4       0.012700
     39 H19          0.9020    -3.7360    -3.3570 ho         1 EP4       0.389000
@<TRIPOS>BOND
     1     1     2 1   
     2     1    22 1   
     3     1    23 1   
     4     1    24 1   
     5     2     3 1   
     6     2     4 1   
     7     3    25 1   
     8     3    26 1   
     9     3    27 1   
    10     4     5 1   
    11     4    28 1   
    12     4    29 1   
    13     5     6 1   
    14     5    20 1   
    15     5    30 1   
    16     6     7 1   
    17     7     8 1   
    18     7    18 1   
    19     7    31 1   
    20     8     9 1   
    21     8    17 1   
    22     9    10 ar  
    23     9    15 ar  
    24    10    11 ar  
    25    11    12 ar  
    26    11    32 1   
    27    12    13 ar  
    28    13    14 1   
    29    13    15 ar  
    30    14    33 1   
    31    14    34 1   
    32    15    16 1   
    33    16    17 2   
    34    17    35 1   
    35    18    19 1   
    36    18    20 1   
    37    18    36 1   
    38    19    37 1   
    39    20    21 1   
    40    20    38 1   
    41    21    39 1   
@<TRIPOS>SUBSTRUCTURE
     1 EP4         1 TEMP              0 ****  ****    0 ROOT
