@<TRIPOS>MOLECULE
molecule
   39    41     1     0     0
SMALL
bcc


@<TRIPOS>ATOM
      1 CG           0.0000     0.0000     0.0000 c3         1 EP4       0.149100
      2 N2           1.4700     0.0000     0.0000 n3         1 EP4      -0.719600
      3 CE           1.9950     0.0000     1.3720 c3         1 EP4       0.149100
      4 C5'          1.9960    -1.1380    -0.7650 c3         1 EP4       0.160800
      5 C4'          1.6320    -0.9710    -2.2430 c3         1 EP4       0.128100
      6 O4'          2.3220     0.1640    -2.7900 os         1 EP4      -0.395600
      7 C1'          2.6300    -0.1540    -4.1650 c3         1 EP4       0.258800
      8 N9           3.7360     0.6760    -4.6510 na         1 EP4      -0.250000
      9 C4           4.0030     0.9870    -5.9600 ca         1 EP4       0.479800
     10 N3           3.4380     0.6960    -7.1280 nb         1 EP4      -0.783000
     11 C2           3.9430     1.1600    -8.2510 ca         1 EP4       0.738900
     12 N1           5.0200     1.9250    -8.2820 nb         1 EP4      -0.837000
     13 C6           5.6510     2.2680    -7.1650 ca         1 EP4       0.787200
     14 N6           6.7780     3.0720    -7.2080 nv         1 EP4      -0.986500
     15 C5           5.1490     1.7990    -5.9400 ca         1 EP4      -0.213200
     16 N7           5.5170     1.9380    -4.6430 nc         1 EP4      -0.591100
     17 C8           4.6850     1.2830    -3.8850 cd         1 EP4       0.428700
     18 C2'          3.0500    -1.6440    -4.1070 c3         1 EP4       0.092100
     19 O2'          2.8430    -2.2820    -5.3690 oh         1 EP4      -0.557800
     20 C3'          2.0870    -2.2110    -3.0370 c3         1 EP4       0.084100
     21 O3'          0.9660    -2.8450    -3.6580 oh         1 EP4      -0.571800
     22 H1          -0.3610     0.5220    -0.8780 h1         1 EP4       0.034533
     23 H2          -0.3610     0.4990     0.8910 h1         1 EP4       0.034533
     24 H3          -0.3610    -1.0210    -0.0130 h1         1 EP4       0.034533
     25 H5           1.6570     0.8900     1.8880 h1         1 EP4       0.034533
     26 H6           3.0780    -0.0110     1.3440 h1         1 EP4       0.034533
     27 H7           1.6390    -0.8790     1.8950 h1         1 EP4       0.034533
     28 H8           1.5640    -2.0570    -0.3880 h1         1 EP4       0.041200
     29 H9           3.0740    -1.1750    -0.6610 h1         1 EP4       0.041200
     30 H10          0.5630    -0.8380    -2.3520 h1         1 EP4       0.080700
     31 H11          1.7520    -0.0320    -4.7880 h2         1 EP4       0.115700
     32 H12          3.4590     0.9030    -9.1850 h5         1 EP4       0.061100
     33 H13          7.1250     3.4000    -8.0870 hn         1 EP4       0.449300
     34 H14          7.2460     3.3230    -6.3600 hn         1 EP4       0.449300
     35 H15          4.7400     1.2300    -2.8040 h5         1 EP4       0.088800
     36 H16          4.0800    -1.7390    -3.7840 h1         1 EP4       0.057700
     37 H17          3.5040    -2.9410    -5.5010 ho         1 EP4       0.404000
     38 H18          2.6100    -2.9030    -2.3880 h1         1 EP4       0.046700
     39 H19          0.9020    -3.7360    -3.3570 ho         1 EP4       0.404000
@<TRIPOS>BOND
     1     3     2 1
     2     1     2 1
     3     2     4 1
     4     4     5 1
     5     5     6 1
     6     5    20 1
     7     6     7 1
     8    20    21 1
     9    20    18 1
    10     7     8 1
    11     7    18 1
    12    10    11 ar
    13    10     9 ar
    14    11    12 ar
    15     8     9 1
    16     8    17 1
    17     9    15 ar
    18    12    13 ar
    19    18    19 1
    20    17    16 2
    21    15    13 ar
    22    15    16 1
    23    13    14 1
    24     1    22 1
    25     1    23 1
    26     1    24 1
    27     3    25 1
    28     3    26 1
    29     3    27 1
    30     4    28 1
    31     4    29 1
    32     5    30 1
    33     7    31 1
    34    11    32 1
    35    14    33 1
    36    14    34 1
    37    17    35 1
    38    18    36 1
    39    19    37 1
    40    20    38 1
    41    21    39 1
@<TRIPOS>SUBSTRUCTURE
     1 EP4         1 TEMP              0 ****  ****    0 ROOT
