@<TRIPOS>MOLECULE
EP5
   56    59     1     0     0
SMALL
bcc


@<TRIPOS>ATOM
      1 N2          -1.2730    -0.0060    -2.2310 n1         1 EP5      -0.369800
      2 C10         -0.7190     0.0010    -1.2390 cg         1 EP5       0.224800
      3 C7           0.0000     0.0000     0.0000 ca         1 EP5       0.008000
      4 C8           1.3980     0.0000     0.0000 ca         1 EP5      -0.040000
      5 C9           2.0850     0.0000     1.1930 ca         1 EP5      -0.150000
      6 C6          -0.6960     0.0050     1.2130 ca         1 EP5      -0.040000
      7 C5          -0.0020     0.0040     2.4020 ca         1 EP5      -0.150000
      8 C4           1.3890    -0.0010     2.3980 ca         1 EP5       0.032600
      9 N1           2.0880    -0.0010     3.6020 nh         1 EP5      -0.357000
     10 C            3.0190     1.1310     3.6710 c3         1 EP5       0.112300
     11 C1           3.8930     0.9950     4.9230 c3         1 EP5       0.056000
     12 C3           1.1650    -0.0030     4.7460 c3         1 EP5       0.112300
     13 C2           1.9620    -0.1860     6.0410 c3         1 EP5       0.056000
     14 N            3.0140     0.8410     6.0910 n          1 EP5      -0.155800
     15 C11          3.1680     1.6210     7.1810 c          1 EP5       0.587100
     16 O            4.0410     2.4620     7.2050 o          1 EP5      -0.623100
     17 C12          2.2560     1.4460     8.3670 c3         1 EP5       0.085400
     18 O1           2.6170     2.3810     9.3860 os         1 EP5      -0.261900
     19 C13          1.8860     2.3550    10.5340 ca         1 EP5       0.151100
     20 C14          2.1830     3.2330    11.5570 ca         1 EP5      -0.127000
     21 C15          1.4300     3.2030    12.7320 ca         1 EP5      -0.043800
     22 C16          0.3750     2.2820    12.8670 ca         1 EP5      -0.263200
     23 C17          0.0920     1.4060    11.8240 ca         1 EP5      -0.030000
     24 C18          0.8380     1.4490    10.6680 ca         1 EP5      -0.180000
     25 C20          1.4650     3.9650    13.9830 cc         1 EP5      -0.240400
     26 C19          0.4820     3.4870    14.7620 cd         1 EP5      -0.217100
     27 N3          -0.1800     2.4810    14.1140 na         1 EP5       0.391600
     28 C21          2.4240     5.0740    14.3280 c3         1 EP5       0.091800
     29 C22          1.8950     6.3980    13.7740 c3         1 EP5      -0.060200
     30 N4           2.8290     7.4800    14.1110 nz         1 EP5       0.083400
     31 H1           1.9390    -0.0560    -0.9370 ha         1 EP5       0.115500
     32 H2           3.1690    -0.0000     1.1940 ha         1 EP5       0.122000
     33 H3          -1.7780    -0.0470     1.2170 ha         1 EP5       0.115500
     34 H4          -0.5400     0.0080     3.3430 ha         1 EP5       0.122000
     35 H5           2.4570     2.0530     3.5800 h1         1 EP5       0.030450
     36 H6           3.7190     1.0590     2.8470 h1         1 EP5       0.030450
     37 H7           4.5350     0.1290     4.8090 h1         1 EP5       0.037450
     38 H8           4.5070     1.8820     5.0190 h1         1 EP5       0.037450
     39 H9           0.5150     0.8600     4.6720 h1         1 EP5       0.030450
     40 H10          0.5660    -0.9050     4.7110 h1         1 EP5       0.030450
     41 H11          2.3960    -1.1780     6.0480 h1         1 EP5       0.037450
     42 H12          1.2880    -0.0860     6.8840 h1         1 EP5       0.037450
     43 H13          1.3890     2.0860     8.2540 h1         1 EP5       0.036700
     44 H14          1.9360     0.4130     8.4280 h1         1 EP5       0.036700
     45 H15          3.0180     3.9160    11.4590 ha         1 EP5       0.110000
     46 H16         -0.7190     0.6940    11.9200 ha         1 EP5       0.109000
     47 H17          0.5880     0.7850     9.8490 ha         1 EP5       0.123000
     48 H18          0.2510     3.8150    15.7680 h4         1 EP5       0.141000
     49 H19         -0.9520     1.9750    14.5010 hn         1 EP5       0.126700
     50 H20          3.4130     4.8210    13.9660 hc         1 EP5       0.027200
     51 H21          2.4550     5.2020    15.4040 hc         1 EP5       0.027200
     52 H22          1.6540     6.2800    12.7250 hx         1 EP5       0.086200
     53 H23          1.0040     6.6870    14.3180 hx         1 EP5       0.086200
     54 H24          3.0040     7.4750    15.0970 hn         1 EP5       0.221133
     55 H25          3.6900     7.3420    13.6200 hn         1 EP5       0.221133
     56 H26          2.4310     8.3590    13.8470 hn         1 EP5       0.221133
@<TRIPOS>BOND
     1     1     2 3   
     2     2     3 1   
     3     3     4 ar  
     4     3     6 ar  
     5     4     5 ar  
     6     4    31 1   
     7     5     8 ar  
     8     5    32 1   
     9     6     7 ar  
    10     6    33 1   
    11     7     8 ar  
    12     7    34 1   
    13     8     9 1   
    14     9    10 1   
    15     9    12 1   
    16    10    11 1   
    17    10    35 1   
    18    10    36 1   
    19    11    14 1   
    20    11    37 1   
    21    11    38 1   
    22    12    13 1   
    23    12    39 1   
    24    12    40 1   
    25    13    14 1   
    26    13    41 1   
    27    13    42 1   
    28    14    15 1   
    29    15    16 2   
    30    15    17 1   
    31    17    18 1   
    32    17    43 1   
    33    17    44 1   
    34    18    19 1   
    35    19    20 ar  
    36    19    24 ar  
    37    20    21 ar  
    38    20    45 1   
    39    21    22 ar  
    40    21    25 1   
    41    22    23 ar  
    42    22    27 1   
    43    23    24 ar  
    44    23    46 1   
    45    24    47 1   
    46    25    26 2   
    47    25    28 1   
    48    26    27 1   
    49    26    48 1   
    50    27    49 1   
    51    28    29 1   
    52    28    50 1   
    53    28    51 1   
    54    29    30 1   
    55    29    52 1   
    56    29    53 1   
    57    30    54 1   
    58    30    55 1   
    59    30    56 1   
@<TRIPOS>SUBSTRUCTURE
     1 EP5         1 TEMP              0 ****  ****    0 ROOT
