@<TRIPOS>MOLECULE
molecule
   56    59     1     0     0
SMALL
bcc


@<TRIPOS>ATOM
      1 N2          -1.2730    -0.0060    -2.2310 n1         1 EP5      -0.353800
      2 C10         -0.7190     0.0010    -1.2390 cg         1 EP5       0.234800
      3 C7           0.0000     0.0000     0.0000 ca         1 EP5      -0.040000
      4 C8           1.3980     0.0000     0.0000 ca         1 EP5      -0.063500
      5 C9           2.0850     0.0000     1.1930 ca         1 EP5      -0.173500
      6 C6          -0.6960     0.0050     1.2130 ca         1 EP5      -0.063500
      7 C5          -0.0020     0.0040     2.4020 ca         1 EP5      -0.173500
      8 C4           1.3890    -0.0010     2.3980 ca         1 EP5       0.119600
      9 N1           2.0880    -0.0010     3.6020 nh         1 EP5      -0.597000
     10 C            3.0190     1.1310     3.6710 c3         1 EP5       0.141800
     11 C1           3.8930     0.9950     4.9230 c3         1 EP5       0.110500
     12 C3           1.1650    -0.0030     4.7460 c3         1 EP5       0.141800
     13 C2           1.9620    -0.1860     6.0410 c3         1 EP5       0.110500
     14 N            3.0140     0.8410     6.0910 n          1 EP5      -0.492800
     15 C11          3.1680     1.6210     7.1810 c          1 EP5       0.667100
     16 O            4.0410     2.4620     7.2050 o          1 EP5      -0.579100
     17 C12          2.2560     1.4460     8.3670 c3         1 EP5       0.034400
     18 O1           2.6170     2.3810     9.3860 os         1 EP5      -0.292900
     19 C13          1.8860     2.3550    10.5340 ca         1 EP5       0.139100
     20 C14          2.1830     3.2330    11.5570 ca         1 EP5      -0.144000
     21 C15          1.4300     3.2030    12.7320 ca         1 EP5      -0.059800
     22 C16          0.3750     2.2820    12.8670 ca         1 EP5      -0.068200
     23 C17          0.0920     1.4060    11.8240 ca         1 EP5      -0.084000
     24 C18          0.8380     1.4490    10.6680 ca         1 EP5      -0.187000
     25 C20          1.4650     3.9650    13.9830 cc         1 EP5      -0.224400
     26 C19          0.4820     3.4870    14.7620 cd         1 EP5      -0.047100
     27 N3          -0.1800     2.4810    14.1140 na         1 EP5      -0.161400
     28 C21          2.4240     5.0740    14.3280 c3         1 EP5      -0.008200
     29 C22          1.8950     6.3980    13.7740 c3         1 EP5       0.090800
     30 N4           2.8290     7.4800    14.1110 nz         1 EP5      -0.812600
     31 H1           1.9390    -0.0560    -0.9370 ha         1 EP5       0.147000
     32 H2           3.1690    -0.0000     1.1940 ha         1 EP5       0.142000
     33 H3          -1.7780    -0.0470     1.2170 ha         1 EP5       0.147000
     34 H4          -0.5400     0.0080     3.3430 ha         1 EP5       0.142000
     35 H5           2.4570     2.0530     3.5800 h1         1 EP5       0.055700
     36 H6           3.7190     1.0590     2.8470 h1         1 EP5       0.055700
     37 H7           4.5350     0.1290     4.8090 h1         1 EP5       0.066450
     38 H8           4.5070     1.8820     5.0190 h1         1 EP5       0.066450
     39 H9           0.5150     0.8600     4.6720 h1         1 EP5       0.055700
     40 H10          0.5660    -0.9050     4.7110 h1         1 EP5       0.055700
     41 H11          2.3960    -1.1780     6.0480 h1         1 EP5       0.066450
     42 H12          1.2880    -0.0860     6.8840 h1         1 EP5       0.066450
     43 H13          1.3890     2.0860     8.2540 h1         1 EP5       0.070200
     44 H14          1.9360     0.4130     8.4280 h1         1 EP5       0.070200
     45 H15          3.0180     3.9160    11.4590 ha         1 EP5       0.137000
     46 H16         -0.7190     0.6940    11.9200 ha         1 EP5       0.143000
     47 H17          0.5880     0.7850     9.8490 ha         1 EP5       0.145000
     48 H18          0.2510     3.8150    15.7680 h4         1 EP5       0.169000
     49 H19         -0.9520     1.9750    14.5010 hn         1 EP5       0.314700
     50 H20          3.4130     4.8210    13.9660 hc         1 EP5       0.064200
     51 H21          2.4550     5.2020    15.4040 hc         1 EP5       0.064200
     52 H22          1.6540     6.2800    12.7250 hx         1 EP5       0.113700
     53 H23          1.0040     6.6870    14.3180 hx         1 EP5       0.113700
     54 H24          3.0040     7.4750    15.0970 hn         1 EP5       0.454467
     55 H25          3.6900     7.3420    13.6200 hn         1 EP5       0.454467
     56 H26          2.4310     8.3590    13.8470 hn         1 EP5       0.454467
@<TRIPOS>BOND
     1    16    15 2
     2    10    11 1
     3    10     9 1
     4     5     4 ar
     5     5     8 ar
     6     4     3 ar
     7    11    14 1
     8    15    14 1
     9    15    17 1
    10     9     8 1
    11     9    12 1
    12     8     7 ar
    13    14    13 1
    14     3     2 1
    15     3     6 ar
    16     2     1 3
    17    18    17 1
    18    18    19 1
    19    12    13 1
    20    19    20 ar
    21    19    24 ar
    22    20    21 ar
    23     7     6 ar
    24    24    23 ar
    25    21    22 ar
    26    21    25 1
    27    23    22 ar
    28    28    25 1
    29    28    29 1
    30    22    27 1
    31    25    26 2
    32    29    30 1
    33    27    26 1
    34     4    31 1
    35     5    32 1
    36     6    33 1
    37     7    34 1
    38    10    35 1
    39    10    36 1
    40    11    37 1
    41    11    38 1
    42    12    39 1
    43    12    40 1
    44    13    41 1
    45    13    42 1
    46    17    43 1
    47    17    44 1
    48    20    45 1
    49    23    46 1
    50    24    47 1
    51    26    48 1
    52    27    49 1
    53    28    50 1
    54    28    51 1
    55    29    52 1
    56    29    53 1
    57    30    54 1
    58    30    55 1
    59    30    56 1
@<TRIPOS>SUBSTRUCTURE
     1 EP5         1 TEMP              0 ****  ****    0 ROOT
