@<TRIPOS>MOLECULE
EP6
   84    82     1     0     0
SMALL
bcc


@<TRIPOS>ATOM
      1 C2          2.3250    0.9010    2.8000 c1        1 EP6      0.022000
      2 C4          3.8320   -0.8550    3.3150 c2        1 EP6      0.126000
      3 C5          2.7820   -1.5270    4.0410 c2        1 EP6     -0.277000
      4 C6          1.4760   -0.8930    4.0890 c2        1 EP6      0.286000
      5 C8          4.5340   -2.8200    4.2420 c2        1 EP6     -0.100000
      6 NAV        13.4420   -3.9910    3.2590 na        1 EP6     -0.213000
      7 CBB        12.8800   -4.5140    4.4270 ca        1 EP6     -0.027000
      8 CAK        13.3070   -5.4860    5.3380 ca        1 EP6     -0.115000
      9 CAI        12.4820   -5.7640    6.4160 ca        1 EP6     -0.102000
     10 CAZ        11.2460   -5.1090    6.6140 ca        1 EP6     -0.051000
     11 CBO        10.3700   -5.4320    7.8000 c3        1 EP6     -0.019000
     12 CAD        10.9410   -6.5480    8.6670 c3        1 EP6     -0.205667
     13 CAE        10.2240   -4.1860    8.6710 c3        1 EP6     -0.205667
     14 CAC         8.9930   -5.8740    7.3130 c3        1 EP6     -0.205667
     15 CAM        10.8140   -4.1390    5.7100 ca        1 EP6     -0.103000
     16 CBC        11.6180   -3.8230    4.6070 ca        1 EP6     -0.076000
     17 NAW        11.4390   -2.9050    3.5520 n2        1 EP6     -0.261000
     18 CBA        12.5370   -3.0340    2.7670 c2        1 EP6      0.035000
     19 CAO        12.8270   -3.1720    0.3290 c2        1 EP6     -0.168000
     20 CBG        13.7520   -3.1470   -0.5900 c1        1 EP6     -0.142000
     21 CAQ        10.1480    0.2200    6.3710 c2        1 EP6     -0.142000
     22 CAP        14.6560   -3.1420   -1.5200 c2        1 EP6     -0.150000
     23 CBH        10.2080   -0.0740    5.0650 c2        1 EP6     -0.123000
     24 NBM         9.2810   -0.9390    4.4200 n3        1 EP6     -0.071000
     25 CBF         9.6160   -5.1720    0.9990 c2        1 EP6     -0.228500
     26 CAB         7.0830   -2.0840    6.8360 c3        1 EP6     -0.290000
     27 CAA         8.4270   -5.5320    1.4660 c2        1 EP6     -0.228500
     28 CBK         8.3470   -2.1130    2.4310 c3        1 EP6     -0.022000
     29 OAX         7.1520   -2.3390    3.1840 os        1 EP6     -0.272000
     30 CBI         8.6300    1.7990    0.9370 c2        1 EP6     -0.101500
     31 OAG         8.9440    0.4460    0.8660 oh        1 EP6     -0.306500
     32 CBJ         7.4230    2.1820    1.3970 c2        1 EP6     -0.101500
     33 OAH         6.4280    1.3360    1.7900 oh        1 EP6     -0.306500
     34 CBL         6.1760   -1.4240    2.8710 c1        1 EP6      0.071000
     35 N9          4.9900   -1.6970    3.4360 na        1 EP6     -0.192000
     36 N7          3.2620   -2.7350    4.5930 n2        1 EP6     -0.039000
     37 N3          3.6130    0.3410    2.7050 nh        1 EP6     -0.186000
     38 N1          1.3220    0.3190    3.4490 n2        1 EP6     -0.291000
     39 N6          0.4560   -1.4920    4.7520 n3        1 EP6     -0.325000
     40 H1          4.3300    0.8280    2.2090 hn        1 EP6      0.278000
     41 H2          5.2320   -3.6340    4.4820 h5        1 EP6      0.218000
     42 H5         12.8180   -6.5290    7.1350 ha        1 EP6      0.153000
     43 H6         11.0610   -7.4860    8.0730 hc        1 EP6      0.079000
     44 H7         11.9290   -6.2530    9.0940 hc        1 EP6      0.079000
     45 H8         10.2430   -6.7570    9.5140 hc        1 EP6      0.079000
     46 H9          9.7620   -3.3520    8.0910 hc        1 EP6      0.079000
     47 H10        11.2230   -3.8530    9.0420 hc        1 EP6      0.079000
     48 H11         9.5730   -4.4120    9.5500 hc        1 EP6      0.079000
     49 H12         8.4920   -5.0570    6.7380 hc        1 EP6      0.079000
     50 H13         8.3480   -6.1380    8.1860 hc        1 EP6      0.079000
     51 H14         9.0850   -6.7700    6.6540 hc        1 EP6      0.079000
     52 H15         9.8500   -3.6310    5.8510 ha        1 EP6      0.121000
     53 H19         7.6510   -4.0020    4.8780 ha        1 EP6      0.002500
     54 H20         7.5310   -4.4400    4.3740 ha        1 EP6      0.002500
     55 H21        11.9770   -3.8750    0.2550 ha        1 EP6      0.148000
     56 H22         9.3880   -0.1710    7.0650 ha        1 EP6      0.159500
     57 H23        10.8940    0.8950    6.8170 ha        1 EP6      0.159500
     58 H24        15.5500   -3.7840   -1.4770 ha        1 EP6      0.149500
     59 H25        10.9930    0.3230    4.3920 h4        1 EP6      0.184000
     60 H26        14.5800   -2.4990   -2.4110 ha        1 EP6      0.149500
     61 H28         9.8250   -5.0700   -0.0750 ha        1 EP6      0.115750
     62 H29         8.0240   -2.6770    6.9050 hc        1 EP6      0.073750
     63 H30        10.4770   -4.9810    1.6550 ha        1 EP6      0.115750
     64 H31         7.2930   -1.0090    7.0310 hc        1 EP6      0.073750
     65 H32         6.6350   -2.2060    5.8220 hc        1 EP6      0.073750
     66 H33         6.3620   -2.4570    7.5970 hc        1 EP6      0.073750
     67 H34         7.5720   -5.7490    0.8100 ha        1 EP6      0.115750
     68 H37         8.8070   -3.1430    2.3010 h1        1 EP6      0.181000
     69 H38         8.1140   -1.6490    1.4290 h1        1 EP6      0.181000
     70 H39         9.0930    0.2560   -0.0730 ho        1 EP6      0.230500
     71 H40         9.4240    2.4890    0.6270 h4        1 EP6      0.175500
     72 H41         6.6980    0.4140    1.6250 ho        1 EP6      0.230500
     73 H42         7.1170    3.2330    1.5370 h4        1 EP6      0.175500
     74 H43        -0.4430   -1.0690    4.7840 hn        1 EP6      0.256000
     75 H44         0.5960   -2.3700    5.1910 hn        1 EP6      0.256000
     76 H3         14.2830   -4.2770    2.8300 hn        1 EP6      0.272000
     77 HBM1        8.2240   -5.6560    2.5390 ha        1 EP6      0.115750
     78 CAR         9.3160   -1.2140    3.1410 c2        1 EP6      0.152000
     79 CAN        12.8180   -2.2690    1.5100 c3        1 EP6     -0.060000
     80 H4         14.2630   -6.0120    5.2050 ha        1 EP6      0.151000
     81 H17        13.8010   -1.7340    1.6200 hc        1 EP6      0.109000
     82 H18        12.0250   -1.4850    1.3640 hc        1 EP6      0.109000
     83 H35         8.5750   -1.3680    5.0080 hn        1 EP6      0.274000
     84 H36        10.1020   -0.7520    2.4930 h4        1 EP6      0.220000
@<TRIPOS>BOND
     1    1   37 1   
     2    1   38 1   
     3    2    3 1   
     4    2   35 1   
     5    2   37 1   
     6    3    4 1   
     7    3   36 1   
     8    4   38 1   
     9    4   39 1   
    10    5   35 1   
    11    5   36 1   
    12    5   41 1   
    13    6    7 1   
    14    6   18 1   
    15    6   76 1   
    16    7    8 1   
    17    7   16 1   
    18    8    9 1   
    19    8   80 1   
    20    9   10 1   
    21    9   42 1   
    22   10   11 1   
    23   10   15 1   
    24   11   12 1   
    25   11   13 1   
    26   11   14 1   
    27   12   43 1   
    28   12   44 1   
    29   12   45 1   
    30   13   46 1   
    31   13   47 1   
    32   13   48 1   
    33   14   49 1   
    34   14   50 1   
    35   14   51 1   
    36   15   16 1   
    37   15   52 1   
    38   16   17 1   
    39   17   18 1   
    40   18   79 1   
    41   19   20 1   
    42   19   55 1   
    43   19   79 1   
    44   20   22 1   
    45   21   23 1   
    46   21   56 1   
    47   21   57 1   
    48   22   58 1   
    49   22   60 1   
    50   23   24 1   
    51   23   59 1   
    52   24   78 1   
    53   24   83 1   
    54   25   27 1   
    55   25   61 1   
    56   25   63 1   
    57   26   62 1   
    58   26   64 1   
    59   26   65 1   
    60   26   66 1   
    61   27   67 1   
    62   27   77 1   
    63   28   29 1   
    64   28   68 1   
    65   28   69 1   
    66   28   78 1   
    67   29   34 1   
    68   30   31 1   
    69   30   32 1   
    70   30   71 1   
    71   31   70 1   
    72   32   33 1   
    73   32   73 1   
    74   33   72 1   
    75   34   35 1   
    76   37   40 1   
    77   39   74 1   
    78   39   75 1   
    79   53   54 1   
    80   78   84 1   
    81   79   81 1   
    82   79   82 1   
@<TRIPOS>SUBSTRUCTURE
     1 EP6         1 TEMP              0 ****  ****    0 ROOT
