@<TRIPOS>MOLECULE
molecule
   83    88     1     0     0
SMALL
bcc


@<TRIPOS>ATOM
      1 C2           0.0000     0.0000     0.0000 ca         1 EP6       0.701900
      2 C4           1.9940     0.0000     1.1420 ca         1 EP6       0.451800
      3 C5           1.2850    -0.0010     2.3560 ca         1 EP6      -0.160200
      4 C6          -0.1180     0.0100     2.3050 ca         1 EP6       0.774200
      5 C8           3.3990    -0.0010     2.8420 cc         1 EP6       0.437700
      6 NAV         13.8080    -5.5780     5.0320 na         1 EP6      -0.259300
      7 CBB         13.8730    -6.3540     6.1740 ca         1 EP6      -0.105200
      8 CAK         14.2710    -7.6570     6.4360 ca         1 EP6      -0.127000
      9 CAI         14.2110    -8.1430     7.7250 ca         1 EP6      -0.120000
     10 CAZ         13.7550    -7.3380     8.7600 ca         1 EP6      -0.089300
     11 CBO         13.6990    -7.8870    10.1620 c3         1 EP6      -0.018700
     12 CAD         14.1920    -9.3360    10.1630 c3         1 EP6      -0.081100
     13 CAE         14.5890    -7.0450    11.0770 c3         1 EP6      -0.081100
     14 CAC         12.2560    -7.8400    10.6690 c3         1 EP6      -0.081100
     15 CAM         13.3600    -6.0520     8.5210 ca         1 EP6      -0.072000
     16 CBC         13.4110    -5.5390     7.2220 ca         1 EP6       0.098400
     17 NAW         13.0970    -4.3350     6.6780 nd         1 EP6      -0.625100
     18 CBA         13.3340    -4.3570     5.4000 cc         1 EP6       0.353800
     19 CAO         11.7710    -2.2630     4.5380 c3         1 EP6      -0.080400
     20 CBG         11.4950    -1.1080     3.5730 cy         1 EP6      -0.103700
     21 CAQ         10.0780    -0.5240     3.6990 cy         1 EP6      -0.112400
     22 CAP         11.0940    -1.5680     2.1620 cy         1 EP6      -0.112400
     23 CBH         10.0670    -0.4240     2.1650 cy         1 EP6       0.147500
     24 NBM          8.7780    -0.7870     1.5610 n3         1 EP6      -0.708600
     25 CBF          8.0870    -1.8030     2.3660 c3         1 EP6       0.161500
     26 CAB          7.1620    -1.1140     3.3710 c3         1 EP6      -0.112600
     27 CAA          7.2620    -2.7060     1.4470 c3         1 EP6      -0.112600
     28 CBK          6.7670     0.0510     0.4430 c3         1 EP6       0.130100
     29 OAX          5.6590    -0.4410     1.2130 os         1 EP6      -0.417600
     30 CBI          6.2870     1.3180    -0.2920 c3         1 EP6       0.084100
     31 OAG          6.4190     1.1580    -1.7050 oh         1 EP6      -0.570800
     32 CBJ          4.7950     1.4450     0.1060 c3         1 EP6       0.084100
     33 OAH          4.0010     1.8350    -1.0160 oh         1 EP6      -0.558800
     34 CBL          4.4550    -0.0000     0.5500 c3         1 EP6       0.260800
     35 N9           3.3240    -0.0010     1.4810 na         1 EP6      -0.258000
     36 N7           2.2030    -0.0010     3.3540 nd         1 EP6      -0.579100
     37 N3           1.3160     0.0000     0.0000 nb         1 EP6      -0.740000
     38 N1          -0.7080     0.0050     1.1140 nb         1 EP6      -0.773000
     39 N6          -0.8700     0.0100     3.4670 nv         1 EP6      -1.072500
     40 H1          -0.5220    -0.0040    -0.9490 h5         1 EP6       0.063100
     41 H2           4.3200     0.0000     3.4140 h5         1 EP6       0.087800
     42 H4          14.6280    -8.2900     5.6320 ha         1 EP6       0.123000
     43 H5          14.5220    -9.1600     7.9310 ha         1 EP6       0.138000
     44 H6          15.2120    -9.3700     9.8010 hc         1 EP6       0.036367
     45 H7          14.1530    -9.7300    11.1710 hc         1 EP6       0.036367
     46 H8          13.5590    -9.9330     9.5170 hc         1 EP6       0.036367
     47 H9          14.6820    -7.5330    12.0390 hc         1 EP6       0.036367
     48 H10         14.1450    -6.0650    11.2100 hc         1 EP6       0.036367
     49 H11         15.5690    -6.9390    10.6290 hc         1 EP6       0.036367
     50 H12         11.5950    -8.2570     9.9180 hc         1 EP6       0.036367
     51 H13         12.1750    -8.4180    11.5820 hc         1 EP6       0.036367
     52 H14         11.9750    -6.8120    10.8660 hc         1 EP6       0.036367
     53 H15         13.0060    -5.4330     9.3360 ha         1 EP6       0.141000
     54 H19         11.1320    -3.1010     4.2910 hc         1 EP6       0.066200
     55 H20         11.5690    -1.9410     5.5530 hc         1 EP6       0.066200
     56 H21         12.2630    -0.3450     3.5610 hc         1 EP6       0.066700
     57 H22         10.0610     0.4430     4.1870 hc         1 EP6       0.063450
     58 H23          9.3580    -1.2370     4.0830 hc         1 EP6       0.063450
     59 H24         10.6350    -2.5500     2.1500 hc         1 EP6       0.063450
     60 H25         11.8810    -1.4290     1.4310 hc         1 EP6       0.063450
     61 H26         10.4810     0.5100     1.8040 h1         1 EP6       0.075700
     62 H28          8.8170    -2.4000     2.8980 h1         1 EP6       0.061700
     63 H29          7.1620    -1.6710     4.3010 hc         1 EP6       0.045367
     64 H30          7.5130    -0.1060     3.5540 hc         1 EP6       0.045367
     65 H31          6.1560    -1.0800     2.9710 hc         1 EP6       0.045367
     66 H32          7.4550    -2.4440     0.4140 hc         1 EP6       0.045367
     67 H33          7.5380    -3.7400     1.6150 hc         1 EP6       0.045367
     68 H34          6.2080    -2.5740     1.6630 hc         1 EP6       0.045367
     69 H37          7.0740    -0.6970    -0.2780 h1         1 EP6       0.100700
     70 H38          6.8420     2.1840     0.0500 h1         1 EP6       0.045700
     71 H39          6.8260     1.9250    -2.0720 ho         1 EP6       0.406000
     72 H40          4.6760     2.1370     0.9310 h1         1 EP6       0.056700
     73 H41          3.9370     2.7750    -1.0440 ho         1 EP6       0.404000
     74 H42          4.2490    -0.6220    -0.3130 h2         1 EP6       0.114700
     75 H43         -1.1630    -0.8560     3.8730 hn         1 EP6       0.443800
     76 H44         -1.1460     0.8770     3.8840 hn         1 EP6       0.443800
     77 CAR          7.9330     0.3990     1.3720 c3         1 EP6       0.148800
     78 CAN         13.2360    -2.6870     4.4200 c3         1 EP6       0.021300
     79 H3          14.0690    -5.8600     4.1080 hn         1 EP6       0.297700
     80 H17         13.8710    -1.9500     4.8980 hc         1 EP6       0.059200
     81 H18         13.5690    -2.8450     3.4020 hc         1 EP6       0.059200
     82 H35          7.5460     0.7240     2.3310 h1         1 EP6       0.050700
     83 H36          8.5210     1.1950     0.9310 h1         1 EP6       0.050700
@<TRIPOS>BOND
     1    33    32 1
     2    32    30 1
     3    32    34 1
     4    39     4 1
     5    31    30 1
     6     4     3 ar
     7     4    38 ar
     8    36     3 1
     9    36     5 2
    10     3     2 ar
    11    38     1 ar
    12    30    28 1
    13     5    35 1
    14     2    35 1
    15     2    37 ar
    16     1    37 ar
    17    35    34 1
    18    34    29 1
    19    28    29 1
    20    28    77 1
    21    77    24 1
    22    24    23 1
    23    24    25 1
    24    22    23 1
    25    22    20 1
    26    23    21 1
    27    26    25 1
    28    25    27 1
    29    20    21 1
    30    20    19 1
    31    19    78 1
    32    78    18 1
    33    18    17 2
    34    18     6 1
    35    17    16 1
    36     6     7 1
    37    16     7 ar
    38    16    15 ar
    39     7     8 ar
    40    15    10 ar
    41     8     9 ar
    42    14    11 1
    43    10     9 ar
    44    10    11 1
    45    11    12 1
    46    11    13 1
    47     1    40 1
    48     5    41 1
    49     6    79 1
    50     8    42 1
    51     9    43 1
    52    12    44 1
    53    12    45 1
    54    12    46 1
    55    13    47 1
    56    13    48 1
    57    13    49 1
    58    14    50 1
    59    14    51 1
    60    14    52 1
    61    15    53 1
    62    78    80 1
    63    78    81 1
    64    19    54 1
    65    19    55 1
    66    20    56 1
    67    21    57 1
    68    21    58 1
    69    22    59 1
    70    22    60 1
    71    23    61 1
    72    25    62 1
    73    26    63 1
    74    26    64 1
    75    26    65 1
    76    27    66 1
    77    27    67 1
    78    27    68 1
    79    77    82 1
    80    77    83 1
    81    28    69 1
    82    30    70 1
    83    31    71 1
    84    32    72 1
    85    33    73 1
    86    34    74 1
    87    39    75 1
    88    39    76 1
@<TRIPOS>SUBSTRUCTURE
     1 EP6         1 TEMP              0 ****  ****    0 ROOT
