@<TRIPOS>MOLECULE
EP7
   52    55     1     0     0
SMALL
bcc


@<TRIPOS>ATOM
      1 C4           0.0000     0.0000     0.0000 ca         1 EP7      -0.034000
      2 C5           1.3940     0.0000     0.0000 ca         1 EP7      -0.141600
      3 C6           2.0970     0.0000     1.2130 ca         1 EP7      -0.076000
      4 C8          -1.9450     0.0030     3.6370 cc         1 EP7       0.484600
      5 N12         -4.0080    -0.0000     2.2000 nd         1 EP7      -0.033000
      6 C15         -2.8550    -0.0010    -1.1750 ca         1 EP7      -0.059900
      7 C17         -2.5870     1.1960    -3.2430 ca         1 EP7       0.159100
      8 C20         -2.7650    -1.2110    -1.8700 ca         1 EP7      -0.058600
      9 C24          4.2110    -0.0010    -2.5500 c3         1 EP7       0.052000
     10 C26         -2.3150     2.2880    -5.3370 c3         1 EP7       0.242700
     11 C28          5.7160    -0.0010    -2.2710 c3         1 EP7      -0.069700
     12 C1           1.4280     0.0000     2.3990 ca         1 EP7      -0.135300
     13 C18         -2.4930    -0.0090    -3.9250 ca         1 EP7      -0.179000
     14 C19         -2.5840    -1.2060    -3.2380 ca         1 EP7      -0.048000
     15 C16         -2.7670     1.2060    -1.8700 ca         1 EP7      -0.109000
     16 C2           0.0260     0.0000     2.4180 ca         1 EP7       0.398600
     17 C3          -0.6860    -0.0000     1.2030 ca         1 EP7      -0.294600
     18 C14         -3.0490    -0.0010     0.2900 cc         1 EP7       0.161400
     19 C9          -2.7110    -0.0010     2.4510 cc         1 EP7      -0.402600
     20 C11          2.1320    -0.0000    -1.2790 c          1 EP7       0.592700
     21 C27         -2.6430     0.0020     4.9740 c3         1 EP7      -0.042400
     22 C29          6.1060    -1.3070    -1.5780 c3         1 EP7       0.006400
     23 C30          6.4780     0.1250    -3.5910 c3         1 EP7       0.006400
     24 N13         -4.2050    -0.0010     0.9290 nd         1 EP7      -0.303700
     25 N7          -0.6390     0.0020     3.5920 nd         1 EP7      -0.598000
     26 N10         -2.0690     0.0000     1.2340 na         1 EP7       0.502800
     27 N23          3.4800    -0.0010    -1.2800 ns         1 EP7      -0.197900
     28 O22          1.5230    -0.0010    -2.3310 o          1 EP7      -0.648100
     29 O25         -2.5010     2.3700    -3.9230 os         1 EP7      -0.303900
     30 Cl1         -2.8790    -2.7160    -1.0130 cl         1 EP7      -0.013400
     31 H1          -0.5440     0.0000    -0.9370 ha         1 EP7       0.156000
     32 H2           3.1800     0.0000     1.2060 ha         1 EP7       0.106000
     33 H3           3.9480    -0.8850    -3.1170 h1         1 EP7       0.030200
     34 H4           3.9480     0.8840    -3.1170 h1         1 EP7       0.030200
     35 H5          -1.3910     1.7640    -5.5500 h1         1 EP7       0.000033
     36 H6          -2.2670     3.2870    -5.7540 h1         1 EP7       0.000033
     37 H7          -3.1440     1.7510    -5.7810 h1         1 EP7       0.000033
     38 H8           5.9640     0.8360    -1.6290 hc         1 EP7       0.026700
     39 H9           1.9810     0.0000     3.3310 ha         1 EP7       0.126000
     40 H10         -2.3520    -0.0120    -4.9990 ha         1 EP7       0.125000
     41 H11         -2.5120    -2.1440    -3.7760 ha         1 EP7       0.116000
     42 H12         -2.8390     2.1460    -1.3370 ha         1 EP7       0.126000
     43 H13         -1.9050     0.0300     5.7660 hc         1 EP7       0.025700
     44 H14         -3.2410    -0.8960     5.0690 hc         1 EP7       0.025700
     45 H15         -3.2840     0.8720     5.0460 hc         1 EP7       0.025700
     46 H16          7.1450    -1.5310    -1.7880 hc         1 EP7       0.006533
     47 H17          5.9670    -1.2040    -0.5090 hc         1 EP7       0.006533
     48 H18          5.4820    -2.1120    -1.9480 hc         1 EP7       0.006533
     49 H19          6.1750     1.0330    -4.0990 hc         1 EP7       0.006533
     50 H20          7.5420     0.1610    -3.3910 hc         1 EP7       0.006533
     51 H21          6.2580    -0.7300    -4.2180 hc         1 EP7       0.006533
     52 H22          3.9800     0.0360    -0.4140 hn         1 EP7       0.182500
@<TRIPOS>BOND
     1     1     2 ar  
     2     1    17 ar  
     3     1    31 1   
     4     2     3 ar  
     5     2    20 1   
     6     3    12 ar  
     7     3    32 1   
     8     4    19 1   
     9     4    21 1   
    10     4    25 2   
    11     5    19 2   
    12     5    24 1   
    13     6     8 ar  
    14     6    15 ar  
    15     6    18 1   
    16     7    13 ar  
    17     7    15 ar  
    18     7    29 1   
    19     8    14 ar  
    20     8    30 1   
    21     9    11 1   
    22     9    27 1   
    23     9    33 1   
    24     9    34 1   
    25    10    29 1   
    26    10    35 1   
    27    10    36 1   
    28    10    37 1   
    29    11    22 1   
    30    11    23 1   
    31    11    38 1   
    32    12    16 ar  
    33    12    39 1   
    34    13    14 ar  
    35    13    40 1   
    36    14    41 1   
    37    15    42 1   
    38    16    17 ar  
    39    16    25 1   
    40    17    26 1   
    41    18    24 2   
    42    18    26 1   
    43    19    26 1   
    44    20    27 1   
    45    20    28 2   
    46    21    43 1   
    47    21    44 1   
    48    21    45 1   
    49    22    46 1   
    50    22    47 1   
    51    22    48 1   
    52    23    49 1   
    53    23    50 1   
    54    23    51 1   
    55    27    52 1   
@<TRIPOS>SUBSTRUCTURE
     1 EP7         1 TEMP              0 ****  ****    0 ROOT
