@<TRIPOS>MOLECULE
molecule
   51    50     1     0     0
SMALL
bcc


@<TRIPOS>ATOM
      1 C1           0.0000     0.0000     0.0000 c          1 EPA       0.891600
      2 OA           1.3420     0.0000     0.0000 o          1 EPA      -0.851300
      3 OB          -0.6020     0.0000     1.0460 o          1 EPA      -0.851300
      4 C2          -0.7540    -0.0000    -1.3040 c3         1 EPA      -0.194400
      5 C3          -2.2580     0.0010    -1.0240 c3         1 EPA      -0.055400
      6 C4          -3.0230     0.0000    -2.3480 c3         1 EPA      -0.097200
      7 C5          -4.5040     0.0000    -2.0730 c2         1 EPA      -0.261200
      8 C6          -5.2420     1.0160    -2.4500 c2         1 EPA      -0.235200
      9 C7          -4.5880     2.2550    -3.0030 c3         1 EPA      -0.026000
     10 C8          -5.0480     2.4730    -4.4220 c2         1 EPA      -0.245200
     11 C9          -5.5380     3.6350    -4.7810 c2         1 EPA      -0.190200
     12 C10         -5.4820     4.8010    -3.8300 c3         1 EPA       0.267000
     13 C11         -4.8550     5.9830    -4.5230 c2         1 EPA      -0.181200
     14 C12         -5.4760     7.1360    -4.5430 c2         1 EPA      -0.202200
     15 C13         -6.7730     7.3070    -3.7950 c3         1 EPA       0.199000
     16 C14         -6.6720     8.4980    -2.8790 c2         1 EPA      -0.190200
     17 C15         -7.5830     9.4370    -2.9210 c2         1 EPA      -0.178200
     18 C16         -8.8240     9.2440    -3.7540 c3         1 EPA       0.249000
     19 C17        -10.0440     9.5010    -2.9080 c2         1 EPA      -0.197200
     20 C18        -10.9580    10.3450    -3.3140 c2         1 EPA      -0.234200
     21 C19        -10.8840    10.9260    -4.7020 c3         1 EPA       0.010800
     22 C20        -12.2210    10.7170    -5.4150 c3         1 EPA      -0.100100
     23 H21         -0.4920     0.8840    -1.8730 hc         1 EPA       0.025700
     24 H22         -0.4940    -0.8850    -1.8720 hc         1 EPA       0.025700
     25 H31         -2.5190     0.8860    -0.4560 hc         1 EPA       0.060700
     26 H32         -2.5200    -0.8830    -0.4550 hc         1 EPA       0.060700
     27 H41         -2.7620     0.8850    -2.9170 hc         1 EPA       0.048700
     28 H42         -2.7620    -0.8840    -2.9160 hc         1 EPA       0.048700
     29 H51         -4.0040    -0.0660    -3.0310 ha         1 EPA       0.221000
     30 H61         -4.9660     1.0810    -3.4960 ha         1 EPA       0.179000
     31 H71         -3.5120     2.1350    -2.9870 hc         1 EPA       0.071700
     32 H72         -4.8650     3.1100    -2.3980 hc         1 EPA       0.071700
     33 H81         -4.0540     2.7680    -4.1080 ha         1 EPA       0.115000
     34 H91         -6.2990     3.7700    -4.0210 ha         1 EPA       0.010000
     35 H101        -4.8880     4.5330    -2.9640 hc         1 EPA       0.060700
     36 H102        -6.4860     5.0580    -3.5140 hc         1 EPA       0.060700
     37 H111        -4.7920     5.8360    -3.4520 ha         1 EPA       0.026000
     38 H121        -6.4280     6.8140    -4.9460 ha         1 EPA       0.038000
     39 H131        -6.9720     6.4170    -3.2100 hc         1 EPA       0.042200
     40 H132        -7.5790     7.4630    -4.5020 hc         1 EPA       0.042200
     41 H141        -7.2830     7.6440    -2.6140 ha         1 EPA       0.035000
     42 H151        -7.5820     9.6660    -3.9790 ha         1 EPA       0.029000
     43 H161        -8.8100     9.9370    -4.5870 hc         1 EPA       0.046200
     44 H162        -8.8520     8.2290    -4.1300 hc         1 EPA       0.046200
     45 H171       -10.0710     8.7790    -3.7150 ha         1 EPA      -0.005000
     46 H181       -10.3440    11.2140    -3.5200 ha         1 EPA       0.115000
     47 H191       -10.6710    11.9860    -4.6390 hc         1 EPA       0.040700
     48 H192       -10.0970    10.4320    -5.2590 hc         1 EPA       0.040700
     49 H201       -13.0200    11.1350    -4.8150 hc         1 EPA       0.039367
     50 H202       -12.3930     9.6570    -5.5560 hc         1 EPA       0.039367
     51 H203       -12.1980    11.2100    -6.3790 hc         1 EPA       0.039367
@<TRIPOS>BOND
     1     1     2 1
     2     1     3 1
     3     1     4 1
     4     4     5 1
     5     4    23 1
     6     4    24 1
     7     5     6 1
     8     5    25 1
     9     5    26 1
    10     6     7 1
    11     6    27 1
    12     6    28 1
    13     7     8 2
    14     7    29 1
    15     8     9 1
    16     8    30 1
    17     9    10 1
    18     9    31 1
    19     9    32 1
    20    10    11 2
    21    10    33 1
    22    11    12 1
    23    11    34 1
    24    12    13 1
    25    12    35 1
    26    12    36 1
    27    13    14 2
    28    13    37 1
    29    14    15 1
    30    14    38 1
    31    15    16 1
    32    15    39 1
    33    15    40 1
    34    16    17 2
    35    16    41 1
    36    17    18 1
    37    17    42 1
    38    18    19 1
    39    18    43 1
    40    18    44 1
    41    19    20 2
    42    19    45 1
    43    20    21 1
    44    20    46 1
    45    21    22 1
    46    21    47 1
    47    21    48 1
    48    22    49 1
    49    22    50 1
    50    22    51 1
@<TRIPOS>SUBSTRUCTURE
     1 EPA         1 TEMP              0 ****  ****    0 ROOT
