@<TRIPOS>MOLECULE
EPA
   51    50     1     0     0
SMALL
bcc


@<TRIPOS>ATOM
      1 C1         -7.1000    2.4950    1.0040 c         1 EPA      0.909600
      2 OA         -8.0690    3.1880    1.4360 o         1 EPA     -0.850300
      3 OB         -6.7440    1.3940    1.5120 o         1 EPA     -0.850300
      4 C2         -6.3060    3.0460   -0.1940 c3        1 EPA     -0.196400
      5 C3         -6.0390    1.9650   -1.2120 c3        1 EPA     -0.065400
      6 C4         -5.0850    2.4320   -2.2940 c3        1 EPA     -0.059200
      7 C5         -4.8020    1.3760   -3.2950 c2        1 EPA     -0.132200
      8 C6         -4.0060    1.5200   -4.3590 c2        1 EPA     -0.214200
      9 C7         -3.2700    2.7650   -4.6920 c3        1 EPA     -0.015000
     10 C8         -3.1230    2.9540   -6.1570 c2        1 EPA     -0.159200
     11 C9         -3.4690    4.0530   -6.8350 c2        1 EPA     -0.177200
     12 C10        -4.0850    5.2550   -6.2220 c3        1 EPA     -0.021000
     13 C11        -4.4370    6.3100   -7.2030 c2        1 EPA     -0.172200
     14 C12        -5.2610    7.3270   -6.9260 c2        1 EPA     -0.171200
     15 C13        -5.9320    7.5010   -5.6160 c3        1 EPA     -0.021000
     16 C14        -6.6740    8.7770   -5.4840 c2        1 EPA     -0.186200
     17 C15        -7.4120    9.0890   -4.4120 c2        1 EPA     -0.159200
     18 C16        -7.5780    8.1920   -3.2440 c3        1 EPA     -0.017000
     19 C17        -8.3420    8.7970   -2.1270 c2        1 EPA     -0.208200
     20 C18        -8.6650    8.1310   -1.0120 c2        1 EPA     -0.146200
     21 C19        -8.3140    6.7160   -0.7510 c3        1 EPA     -0.052200
     22 C20        -8.7240    6.2540    0.6240 c3        1 EPA     -0.122100
     23 H21        -5.3380    3.4530    0.1970 hc        1 EPA      0.019700
     24 H22        -6.8720    3.8940   -0.6570 hc        1 EPA      0.019700
     25 H31        -7.0060    1.6430   -1.6780 hc        1 EPA      0.047700
     26 H32        -5.6130    1.0710   -0.6810 hc        1 EPA      0.047700
     27 H41        -5.5200    3.3310   -2.8110 hc        1 EPA      0.038700
     28 H42        -4.1210    2.7650   -1.8220 hc        1 EPA      0.038700
     29 H51        -5.3010    0.4080   -3.1110 ha        1 EPA      0.123000
     30 H61        -3.8500    0.6810   -5.0560 ha        1 EPA      0.108000
     31 H71        -2.2400    2.7080   -4.2370 hc        1 EPA      0.051700
     32 H72        -3.7800    3.6520   -4.2240 hc        1 EPA      0.051700
     33 H81        -2.6860    2.0930   -6.6910 ha        1 EPA      0.112000
     34 H91        -3.3050    4.0980   -7.9240 ha        1 EPA      0.112000
     35 H101       -3.3760    5.6930   -5.4620 hc        1 EPA      0.061700
     36 H102       -5.0100    4.9490   -5.6530 hc        1 EPA      0.061700
     37 H111       -3.9710    6.2270   -8.1980 ha        1 EPA      0.116000
     38 H121       -5.4800    8.0880   -7.6920 ha        1 EPA      0.116000
     39 H131       -6.6430    6.6400   -5.4500 hc        1 EPA      0.061200
     40 H132       -5.1650    7.4330   -4.7910 hc        1 EPA      0.061200
     41 H141       -6.5890    9.4830   -6.3260 ha        1 EPA      0.114000
     42 H151       -7.9410   10.0550   -4.3660 ha        1 EPA      0.117000
     43 H161       -8.0930    7.2440   -3.5760 hc        1 EPA      0.059700
     44 H162       -6.5620    7.8750   -2.8670 hc        1 EPA      0.059700
     45 H171       -8.6390    9.8500   -2.2530 ha        1 EPA      0.108000
     46 H181       -9.2320    8.6370   -0.2130 ha        1 EPA      0.116000
     47 H191       -8.8050    6.0640   -1.5260 hc        1 EPA      0.048200
     48 H192       -7.2040    6.5760   -0.8770 hc        1 EPA      0.048200
     49 H201       -9.8290    6.3380    0.7540 hc        1 EPA      0.055700
     50 H202       -8.4280    5.1780    0.7820 hc        1 EPA      0.055700
     51 H203       -8.2300    6.8740    1.4100 hc        1 EPA      0.055700
@<TRIPOS>BOND
     1    1    2 1   
     2    1    3 1   
     3    1    4 1   
     4    4    5 1   
     5    4   23 1   
     6    4   24 1   
     7    5    6 1   
     8    5   25 1   
     9    5   26 1   
    10    6    7 1   
    11    6   27 1   
    12    6   28 1   
    13    7    8 2   
    14    7   29 1   
    15    8    9 1   
    16    8   30 1   
    17    9   10 1   
    18    9   31 1   
    19    9   32 1   
    20   10   11 2   
    21   10   33 1   
    22   11   12 1   
    23   11   34 1   
    24   12   13 1   
    25   12   35 1   
    26   12   36 1   
    27   13   14 2   
    28   13   37 1   
    29   14   15 1   
    30   14   38 1   
    31   15   16 1   
    32   15   39 1   
    33   15   40 1   
    34   16   17 2   
    35   16   41 1   
    36   17   18 1   
    37   17   42 1   
    38   18   19 1   
    39   18   43 1   
    40   18   44 1   
    41   19   20 2   
    42   19   45 1   
    43   20   21 1   
    44   20   46 1   
    45   21   22 1   
    46   21   47 1   
    47   21   48 1   
    48   22   49 1   
    49   22   50 1   
    50   22   51 1   
@<TRIPOS>SUBSTRUCTURE
     1 EPA         1 TEMP              0 ****  ****    0 ROOT
