@<TRIPOS>MOLECULE
EPB
   76    78     1     0     0
SMALL
bcc


@<TRIPOS>ATOM
      1 O16         0.8750    0.0800   -0.7130 o         1 EPB     -0.550000
      2 C51         7.1660   -0.6920    0.5340 c3        1 EPB     -0.084100
      3 O41         5.6350    1.2450    0.7320 os        1 EPB     -0.403600
      4 C5          5.9130   -0.0130    0.0770 cx        1 EPB      0.077800
      5 C4          4.7670    0.1410    1.0330 cx        1 EPB      0.072100
      6 C16         0.7860   -0.9640   -0.0640 c         1 EPB      0.656100
      7 O1          1.3870   -1.0600    1.1610 os        1 EPB     -0.445900
      8 C2          2.3150   -0.0600    1.6170 c3        1 EPB      0.205300
      9 C3          3.3540    0.2610    0.5430 c3        1 EPB     -0.105400
     10 C20         1.6580    1.1720    2.1770 c2        1 EPB     -0.105400
     11 C21         2.6010    2.1060    2.8370 c3        1 EPB     -0.062900
     12 C22         0.3300    1.3600    2.1050 ce        1 EPB     -0.200800
     13 C23        -0.4350    2.4740    2.6310 cc        1 EPB      0.401100
     14 N26        -0.0070    3.2880    3.6830 nc        1 EPB     -0.628000
     15 C25        -0.9360    4.2060    3.9490 cd        1 EPB      0.397700
     16 C27        -0.8330    5.2390    5.0000 c3        1 EPB     -0.130400
     17 C24        -1.6970    2.8070    2.1300 cd        1 EPB     -0.248400
     18 S1         -2.3370    4.1100    2.9450 ss        1 EPB     -0.105300
     19 C15         0.1370   -2.2570   -0.4600 c3        1 EPB     -0.168400
     20 C14        -0.9770   -2.0600   -1.4870 c3        1 EPB      0.151100
     21 O14        -2.2350   -2.0380   -0.8370 oh        1 EPB     -0.584800
     22 C13        -0.9480   -3.1240   -2.6200 c3        1 EPB     -0.161000
     23 C29        -0.8820   -4.5270   -2.0560 c3        1 EPB     -0.090100
     24 C30        -2.2710   -3.0140   -3.3930 c3        1 EPB     -0.090100
     25 C12         0.1580   -2.7230   -3.6020 c         1 EPB      0.580100
     26 O12        -0.1060   -1.7890   -4.3780 o         1 EPB     -0.545100
     27 C11         1.5560   -3.3150   -3.7540 c3        1 EPB     -0.149700
     28 C28         1.9320   -4.5300   -2.9530 c3        1 EPB     -0.089100
     29 C10         2.5510   -2.1480   -3.5500 c3        1 EPB      0.150100
     30 O10         2.3780   -1.6830   -2.2170 oh        1 EPB     -0.628800
     31 C9          4.0270   -2.5150   -3.7720 c3        1 EPB     -0.087700
     32 C91         4.2610   -2.9180   -5.2120 c3        1 EPB     -0.094100
     33 C8          4.9210   -1.3350   -3.3950 c3        1 EPB     -0.073400
     34 C7          5.3370   -1.3820   -1.9370 c3        1 EPB     -0.085400
     35 C6          5.6920   -0.0050   -1.4120 c3        1 EPB     -0.067400
     36 H511        7.3010   -0.5770    1.6370 hc        1 EPB      0.049033
     37 H512        7.1150   -1.7800    0.2850 hc        1 EPB      0.049033
     38 H513        8.0530   -0.2450    0.0220 hc        1 EPB      0.049033
     39 H3          2.7950   -0.6120    2.4850 h1        1 EPB      0.081700
     40 H31         3.2230   -0.4580   -0.3110 hc        1 EPB      0.082200
     41 H32         3.1740    1.2940    0.1410 hc        1 EPB      0.082200
     42 H211        2.4690    2.0670    3.9470 hc        1 EPB      0.054367
     43 H212        2.4160    3.1560    2.5000 hc        1 EPB      0.054367
     44 H213        3.6640    1.8490    2.5970 hc        1 EPB      0.054367
     45 H22        -0.2980    0.6210    1.5720 ha        1 EPB      0.134000
     46 H271       -1.7530    5.8740    5.0090 hc        1 EPB      0.057700
     47 H272        0.0550    5.8970    4.8170 hc        1 EPB      0.057700
     48 H273       -0.7140    4.7650    6.0070 hc        1 EPB      0.057700
     49 H24        -2.1930    2.2890    1.3120 h4        1 EPB      0.186000
     50 H151       -0.2550   -2.7760    0.4530 hc        1 EPB      0.094200
     51 H152        0.9670   -2.8790   -0.8960 hc        1 EPB      0.094200
     52 H14        -0.9020   -1.0350   -1.9610 h1        1 EPB      0.117700
     53 H2         -2.3860   -2.9130   -0.4570 ho        1 EPB      0.396000
     54 H291       -0.8330   -5.2770   -2.8830 hc        1 EPB      0.046200
     55 H292       -1.8140   -4.7320   -1.4690 hc        1 EPB      0.046200
     56 H293       -0.0150   -4.6740   -1.3720 hc        1 EPB      0.046200
     57 H301       -2.4060   -1.9730   -3.7750 hc        1 EPB      0.046200
     58 H302       -2.2650   -3.7190   -4.2570 hc        1 EPB      0.046200
     59 H303       -3.1280   -3.2620   -2.7240 hc        1 EPB      0.046200
     60 H11         1.6250   -3.5990   -4.8490 hc        1 EPB      0.077700
     61 H281        2.0170   -4.2950   -1.8660 hc        1 EPB      0.043367
     62 H282        1.2010   -5.3600   -3.1070 hc        1 EPB      0.043367
     63 H283        2.9280   -4.9060   -3.3000 hc        1 EPB      0.043367
     64 H1          2.2710   -1.3360   -4.2840 h1        1 EPB      0.061700
     65 H10         2.3970   -0.7170   -2.2470 ho        1 EPB      0.427000
     66 H9          4.2880   -3.3800   -3.1020 hc        1 EPB      0.061700
     67 H911        3.6740   -3.8340   -5.4630 hc        1 EPB      0.038033
     68 H912        5.3420   -3.1400   -5.3800 hc        1 EPB      0.038033
     69 H913        3.9560   -2.0980   -5.9060 hc        1 EPB      0.038033
     70 H81         5.8400   -1.3370   -4.0390 hc        1 EPB      0.042200
     71 H82         4.3790   -0.3760   -3.6090 hc        1 EPB      0.042200
     72 H71         4.5000   -1.8100   -1.3210 hc        1 EPB      0.051700
     73 H72         6.2150   -2.0700   -1.8200 hc        1 EPB      0.051700
     74 H61         6.6240    0.3680   -1.9150 hc        1 EPB      0.057200
     75 H62         4.8690    0.7200   -1.6550 hc        1 EPB      0.057200
     76 H4          4.8860   -0.2410    2.0690 h1        1 EPB      0.085700
@<TRIPOS>BOND
     1    1    6 2   
     2    2    4 1   
     3    2   36 1   
     4    2   37 1   
     5    2   38 1   
     6    3    4 1   
     7    3    5 1   
     8    4    5 1   
     9    4   35 1   
    10    5    9 1   
    11    5   76 1   
    12    6    7 1   
    13    6   19 1   
    14    7    8 1   
    15    8    9 1   
    16    8   10 1   
    17    8   39 1   
    18    9   40 1   
    19    9   41 1   
    20   10   11 1   
    21   10   12 2   
    22   11   42 1   
    23   11   43 1   
    24   11   44 1   
    25   12   13 1   
    26   12   45 1   
    27   13   14 1   
    28   13   17 2   
    29   14   15 2   
    30   15   16 1   
    31   15   18 1   
    32   16   46 1   
    33   16   47 1   
    34   16   48 1   
    35   17   18 1   
    36   17   49 1   
    37   19   20 1   
    38   19   50 1   
    39   19   51 1   
    40   20   21 1   
    41   20   22 1   
    42   20   52 1   
    43   21   53 1   
    44   22   23 1   
    45   22   24 1   
    46   22   25 1   
    47   23   54 1   
    48   23   55 1   
    49   23   56 1   
    50   24   57 1   
    51   24   58 1   
    52   24   59 1   
    53   25   26 2   
    54   25   27 1   
    55   27   28 1   
    56   27   29 1   
    57   27   60 1   
    58   28   61 1   
    59   28   62 1   
    60   28   63 1   
    61   29   30 1   
    62   29   31 1   
    63   29   64 1   
    64   30   65 1   
    65   31   32 1   
    66   31   33 1   
    67   31   66 1   
    68   32   67 1   
    69   32   68 1   
    70   32   69 1   
    71   33   34 1   
    72   33   70 1   
    73   33   71 1   
    74   34   35 1   
    75   34   72 1   
    76   34   73 1   
    77   35   74 1   
    78   35   75 1   
@<TRIPOS>SUBSTRUCTURE
     1 EPB         1 TEMP              0 ****  ****    0 ROOT
