@<TRIPOS>MOLECULE
molecule
   34    34     1     0     0
SMALL
bcc


@<TRIPOS>ATOM
      1 C            1.4640     0.0000     0.0000 c3         1 EPC      -0.026700
      2 N2           0.0000     0.0000     0.0000 n2         1 EPC      -0.489900
      3 N1          -4.8640     0.9710    -0.5610 nb         1 EPC      -0.749000
      4 C2          -4.2320    -0.0290     0.0170 ca         1 EPC       0.312600
      5 C2A         -5.0240    -1.1380     0.6590 c3         1 EPC      -0.118400
      6 C3          -2.8460    -0.0730     0.0430 ca         1 EPC      -0.001200
      7 O1          -2.1980    -1.1060     0.6400 oh         1 EPC      -0.460100
      8 C4          -2.1230     0.9690    -0.5610 ca         1 EPC      -0.082900
      9 C4A         -0.6470     0.9690    -0.5600 ce         1 EPC       0.365800
     10 C5          -2.8430     2.0120    -1.1560 ca         1 EPC      -0.148600
     11 C6          -4.2210     1.9690    -1.1370 ca         1 EPC       0.398200
     12 C5A         -2.1230     3.1560    -1.8180 c3         1 EPC       0.188700
     13 O2          -3.0780     4.0730    -2.3550 os         1 EPC      -0.562200
     14 P1          -2.2430     5.2660    -3.0430 p5         1 EPC       1.171900
     15 O3          -1.3870     4.7130    -4.1150 o          1 EPC      -0.920500
     16 O4          -3.2630     6.3420    -3.6720 o          1 EPC      -0.920500
     17 O5          -1.3210     5.9840    -1.9370 o          1 EPC      -0.920500
     18 P2           2.0720     0.0000     1.7180 p5         1 EPC       1.056700
     19 O7           1.5790    -1.2070     2.4160 o          1 EPC      -0.912833
     20 O8           3.6820     0.0000     1.7170 o          1 EPC      -0.912833
     21 O6           1.5350     1.3160     2.4750 o          1 EPC      -0.912833
     22 CA           1.9740    -1.2510    -0.7210 c3         1 EPC      -0.038100
     23 H1C1         1.8250     0.8840    -0.5110 h1         1 EPC       0.031700
     24 H2A1        -4.6900    -1.2750     1.6810 hc         1 EPC       0.019700
     25 H2A2        -6.0760    -0.8800     0.6550 hc         1 EPC       0.019700
     26 H2A3        -4.8750    -2.0560     0.1040 hc         1 EPC       0.019700
     27 HO1         -2.2370    -1.8660     0.0830 ho         1 EPC       0.382000
     28 H4A1        -0.1060     1.7810    -1.0300 h4         1 EPC      -0.003200
     29 HC61        -4.7860     2.7680    -1.6030 h4         1 EPC       0.048100
     30 H5A1        -1.4980     2.7760    -2.6170 h1         1 EPC       0.073200
     31 H5A2        -1.5050     3.6650    -1.0870 h1         1 EPC       0.073200
     32 HCA1         2.6920    -1.7620    -0.0920 hc         1 EPC       0.006033
     33 HCA2         1.1410    -1.9110    -0.9300 hc         1 EPC       0.006033
     34 HCA3         2.4490    -0.9630    -1.6510 hc         1 EPC       0.006033
@<TRIPOS>BOND
     1     1     2 1
     2     1    18 1
     3     1    22 1
     4     1    23 1
     5     2     9 2
     6     3     4 ar
     7     3    11 ar
     8     4     5 1
     9     4     6 ar
    10     5    24 1
    11     5    25 1
    12     5    26 1
    13     6     7 1
    14     6     8 ar
    15     7    27 1
    16     8     9 1
    17     8    10 ar
    18     9    28 1
    19    10    11 ar
    20    10    12 1
    21    11    29 1
    22    12    13 1
    23    12    30 1
    24    12    31 1
    25    13    14 1
    26    14    15 1
    27    14    16 1
    28    14    17 1
    29    18    19 1
    30    18    20 1
    31    18    21 1
    32    22    32 1
    33    22    33 1
    34    22    34 1
@<TRIPOS>SUBSTRUCTURE
     1 EPC         1 TEMP              0 ****  ****    0 ROOT
