@<TRIPOS>MOLECULE
EPC
   34    35     1     0     0
SMALL
bcc


@<TRIPOS>ATOM
      1 C            1.4640     0.0000     0.0000 c3         1 EPC      -0.437000
      2 N2           0.0000     0.0000     0.0000 n2         1 EPC       0.117000
      3 N1          -4.8640     0.9710    -0.5610 n2         1 EPC      -0.134000
      4 C2          -4.2320    -0.0290     0.0170 c2         1 EPC      -0.186000
      5 C2A         -5.0240    -1.1380     0.6590 c3         1 EPC      -0.038000
      6 C3          -2.8460    -0.0730     0.0430 c2         1 EPC      -0.040000
      7 O1          -2.1980    -1.1060     0.6400 oh         1 EPC      -0.203000
      8 C4          -2.1230     0.9690    -0.5610 c3         1 EPC      -0.091000
      9 C4A         -0.6470     0.9690    -0.5600 c2         1 EPC      -0.420000
     10 C5          -2.8430     2.0120    -1.1560 c2         1 EPC      -0.048000
     11 C6          -4.2210     1.9690    -1.1370 c2         1 EPC      -0.113000
     12 C5A         -2.1230     3.1560    -1.8180 c3         1 EPC       0.117000
     13 O2          -3.0780     4.0730    -2.3550 os         1 EPC      -0.642000
     14 P1          -2.2430     5.2660    -3.0430 p5         1 EPC       0.911500
     15 O3          -1.3870     4.7130    -4.1150 o          1 EPC      -0.774500
     16 O4          -3.2630     6.3420    -3.6720 o          1 EPC      -0.774500
     17 O5          -1.3210     5.9840    -1.9370 o          1 EPC      -0.774500
     18 P2           2.0720     0.0000     1.7180 p5         1 EPC       0.844500
     19 O7           1.5790    -1.2070     2.4160 o          1 EPC      -0.727500
     20 O8           3.6820     0.0000     1.7170 o          1 EPC      -0.727500
     21 O6           1.5350     1.3160     2.4750 o          1 EPC      -0.727500
     22 CA           1.9740    -1.2510    -0.7210 c3         1 EPC      -0.052000
     23 H1C1         1.8250     0.8840    -0.5110 h1         1 EPC       0.091000
     24 H2A1        -4.6900    -1.2750     1.6810 hc         1 EPC       0.020000
     25 H2A2        -4.8750    -2.0560     0.1040 hc         1 EPC       0.020000
     26 H2A3        -6.0760    -0.8800     0.6550 hc         1 EPC       0.020000
     27 HO1         -2.3300    -1.8930     0.1380 ho         1 EPC       0.162000
     28 H4A1        -1.2590     1.2450     0.2900 DU         1 EPC       0.248000
     29 HC61        -4.7860     2.7670    -1.6040 h4         1 EPC       0.147000
     30 H5A1        -1.4980     2.7760    -2.6170 h1         1 EPC       0.084500
     31 H5A2        -1.5050     3.6650    -1.0870 h1         1 EPC       0.084500
     32 HCA1         2.5850    -1.8340    -0.0430 hc         1 EPC       0.013333
     33 HCA2         1.1310    -1.8460    -1.0510 hc         1 EPC       0.013333
     34 HCA3         2.5660    -0.9570    -1.5790 hc         1 EPC       0.013333
@<TRIPOS>BOND
     1     1     2 1   
     2     1    18 1   
     3     1    22 1   
     4     1    23 1   
     5     2     9 1   
     6     3     4 1   
     7     3    11 1   
     8     4     5 1   
     9     4     6 1   
    10     5    24 1   
    11     5    25 1   
    12     5    26 1   
    13     6     7 1   
    14     6     8 1   
    15     7    27 1   
    16     8     9 1   
    17     8    10 1   
    18     8    28 1   
    19     9    28 1   
    20    10    11 1   
    21    10    12 1   
    22    11    29 1   
    23    12    13 1   
    24    12    30 1   
    25    12    31 1   
    26    13    14 1   
    27    14    15 1   
    28    14    16 1   
    29    14    17 1   
    30    18    19 1   
    31    18    20 1   
    32    18    21 1   
    33    22    32 1   
    34    22    33 1   
    35    22    34 1   
@<TRIPOS>SUBSTRUCTURE
     1 EPC         1 TEMP              0 ****  ****    0 ROOT
