@<TRIPOS>MOLECULE
EPD
   75    76     1     0     0
SMALL
bcc


@<TRIPOS>ATOM
      1 C51        -0.2570    0.8460   -0.2660 c3        1 EPD     -0.060900
      2 C5          1.2150    0.6450   -0.2860 c2        1 EPD     -0.100400
      3 C4          1.9560    0.8800    0.8080 c2        1 EPD     -0.184200
      4 C3          3.4180    0.6830    0.9180 c3        1 EPD     -0.061200
      5 C2          4.1140    1.9400    1.4420 c3        1 EPD      0.183300
      6 C20         3.8610    2.1650    2.9120 c2        1 EPD     -0.071400
      7 C21         4.4630    1.1840    3.8400 c3        1 EPD     -0.054900
      8 C22         3.1040    3.2180    3.2720 ce        1 EPD     -0.219800
      9 C23         2.6940    3.6020    4.6080 cc        1 EPD      0.401100
     10 C24         2.1050    4.8430    4.8720 cd        1 EPD     -0.256400
     11 S1          1.7310    4.9950    6.4860 ss        1 EPD     -0.095300
     12 C25         2.3510    3.4160    6.8070 cd        1 EPD      0.399700
     13 C27         2.3260    2.8610    8.1760 c3        1 EPD     -0.131400
     14 N26         2.8300    2.7870    5.7330 nc        1 EPD     -0.628000
     15 C6          1.7700    0.1890   -1.5930 c3        1 EPD     -0.051200
     16 C7          2.1680   -1.2750   -1.5590 c3        1 EPD     -0.074400
     17 C8          2.8030   -1.7360   -2.8550 c3        1 EPD     -0.074400
     18 C9          4.3270   -1.7760   -2.8800 c3        1 EPD     -0.060700
     19 C91         4.8910   -2.5400   -1.7020 c3        1 EPD     -0.093100
     20 C10         4.9270   -0.3660   -2.9830 c3        1 EPD      0.159100
     21 O10         4.3750    0.2160   -4.1540 oh        1 EPD     -0.608800
     22 C11         6.4680   -0.3880   -3.0490 c3        1 EPD     -0.194700
     23 C28         6.9610   -0.9950   -4.3480 c3        1 EPD     -0.084100
     24 C12         7.0210    1.0150   -2.9130 c         1 EPD      0.579100
     25 O12         6.4100    1.9790   -3.3930 o         1 EPD     -0.535100
     26 C13         8.3760    1.2390   -2.2530 c3        1 EPD     -0.177000
     27 C30         8.9950   -0.0250   -1.6830 c3        1 EPD     -0.089100
     28 C29         9.3030    1.7650   -3.3560 c3        1 EPD     -0.089100
     29 C14         8.3240    2.3310   -1.1530 c3        1 EPD      0.172100
     30 O14         7.8770    3.5740   -1.6440 oh        1 EPD     -0.598800
     31 C15         7.6000    1.9520    0.1390 c3        1 EPD     -0.170400
     32 C16         6.1100    2.0780    0.0990 c         1 EPD      0.636100
     33 O16         5.3790    2.4170   -0.8340 o         1 EPD     -0.548000
     34 O1          5.5450    1.7660    1.3040 os        1 EPD     -0.439900
     35 H511       -0.6240    1.1350    0.7480 hc        1 EPD      0.041700
     36 H512       -0.7730   -0.0980   -0.5750 hc        1 EPD      0.041700
     37 H513       -0.5420    1.6520   -0.9880 hc        1 EPD      0.041700
     38 H4          1.4760    1.2410    1.7350 ha        1 EPD      0.126000
     39 H31         3.8760    0.4300   -0.0770 hc        1 EPD      0.060200
     40 H32         3.6260   -0.1740    1.6140 hc        1 EPD      0.060200
     41 H2          3.7980    2.8320    0.8290 h1        1 EPD      0.080700
     42 H211        5.0420    1.7060    4.6430 hc        1 EPD      0.053367
     43 H212        5.1600    0.4970    3.2990 hc        1 EPD      0.053367
     44 H213        3.6650    0.5690    4.3270 hc        1 EPD      0.053367
     45 H22         2.7230    3.9060    2.4940 ha        1 EPD      0.130000
     46 H24         1.9170    5.6110    4.1250 h4        1 EPD      0.182000
     47 H271        1.8700    3.5980    8.8830 hc        1 EPD      0.058700
     48 H272        3.3640    2.6270    8.5240 hc        1 EPD      0.058700
     49 H273        1.7260    1.9170    8.2060 hc        1 EPD      0.058700
     50 H61         1.0060    0.3420   -2.4020 hc        1 EPD      0.054700
     51 H62         2.6590    0.8190   -1.8700 hc        1 EPD      0.054700
     52 H71         2.8590   -1.4540   -0.6930 hc        1 EPD      0.040200
     53 H72         1.2460   -1.8880   -1.3680 hc        1 EPD      0.040200
     54 H81         2.4570   -1.0810   -3.7000 hc        1 EPD      0.050700
     55 H82         2.4410   -2.7780   -3.0730 hc        1 EPD      0.050700
     56 H9          4.6130   -2.3190   -3.8280 hc        1 EPD      0.057700
     57 H911        5.9010   -2.9500   -1.9480 hc        1 EPD      0.034700
     58 H912        4.2230   -3.3980   -1.4440 hc        1 EPD      0.034700
     59 H913        4.9870   -1.8850   -0.8020 hc        1 EPD      0.034700
     60 H10         4.6320    0.2450   -2.0800 h1        1 EPD      0.047700
     61 H3          4.6130    1.1530   -4.1450 ho        1 EPD      0.428000
     62 H11         6.8260   -1.0140   -2.1870 hc        1 EPD      0.070700
     63 H281        6.7400   -2.0890   -4.3620 hc        1 EPD      0.047367
     64 H282        8.0630   -0.8520   -4.4580 hc        1 EPD      0.047367
     65 H283        6.4420   -0.5140   -5.2140 hc        1 EPD      0.047367
     66 H301        8.3470   -0.4950   -0.9050 hc        1 EPD      0.046867
     67 H302        9.9820    0.2170   -1.2160 hc        1 EPD      0.046867
     68 H303        9.1660   -0.7710   -2.4980 hc        1 EPD      0.046867
     69 H291       10.3320    1.9120   -2.9530 hc        1 EPD      0.046867
     70 H292        8.9160    2.7450   -3.7310 hc        1 EPD      0.046867
     71 H293        9.3460    1.0390   -4.2020 hc        1 EPD      0.046867
     72 H14         9.4020    2.5350   -0.8640 h1        1 EPD      0.074700
     73 H1          6.9770    3.4650   -1.9920 ho        1 EPD      0.442000
     74 H151        7.8650    0.9090    0.4520 hc        1 EPD      0.090200
     75 H152        7.9580    2.6470    0.9490 hc        1 EPD      0.090200
@<TRIPOS>BOND
     1    1    2 1   
     2    1   35 1   
     3    1   36 1   
     4    1   37 1   
     5    2    3 2   
     6    2   15 1   
     7    3    4 1   
     8    3   38 1   
     9    4    5 1   
    10    4   39 1   
    11    4   40 1   
    12    5    6 1   
    13    5   34 1   
    14    5   41 1   
    15    6    7 1   
    16    6    8 2   
    17    7   42 1   
    18    7   43 1   
    19    7   44 1   
    20    8    9 1   
    21    8   45 1   
    22    9   10 2   
    23    9   14 1   
    24   10   11 1   
    25   10   46 1   
    26   11   12 1   
    27   12   13 1   
    28   12   14 2   
    29   13   47 1   
    30   13   48 1   
    31   13   49 1   
    32   15   16 1   
    33   15   50 1   
    34   15   51 1   
    35   16   17 1   
    36   16   52 1   
    37   16   53 1   
    38   17   18 1   
    39   17   54 1   
    40   17   55 1   
    41   18   19 1   
    42   18   20 1   
    43   18   56 1   
    44   19   57 1   
    45   19   58 1   
    46   19   59 1   
    47   20   21 1   
    48   20   22 1   
    49   20   60 1   
    50   21   61 1   
    51   22   23 1   
    52   22   24 1   
    53   22   62 1   
    54   23   63 1   
    55   23   64 1   
    56   23   65 1   
    57   24   25 2   
    58   24   26 1   
    59   26   27 1   
    60   26   28 1   
    61   26   29 1   
    62   27   66 1   
    63   27   67 1   
    64   27   68 1   
    65   28   69 1   
    66   28   70 1   
    67   28   71 1   
    68   29   30 1   
    69   29   31 1   
    70   29   72 1   
    71   30   73 1   
    72   31   32 1   
    73   31   74 1   
    74   31   75 1   
    75   32   33 2   
    76   32   34 1   
@<TRIPOS>SUBSTRUCTURE
     1 EPD         1 TEMP              0 ****  ****    0 ROOT
