@<TRIPOS>MOLECULE
molecule
   75    76     1     0     0
SMALL
bcc


@<TRIPOS>ATOM
      1 C51          0.0000     0.0000     0.0000 c3         1 EPD      -0.054900
      2 C5           1.5140     0.0000     0.0000 c2         1 EPD      -0.114400
      3 C4           2.1400     0.0000     1.1470 c2         1 EPD      -0.187200
      4 C3           3.6400    -0.0030     1.2470 c3         1 EPD      -0.055200
      5 C2           4.1520     1.4240     1.4500 c3         1 EPD       0.189300
      6 C20          3.6470     1.9600     2.7670 c2         1 EPD      -0.086400
      7 C21          4.0990     1.3300     4.0600 c3         1 EPD      -0.038900
      8 C22          2.8080     2.9870     2.7880 ce         1 EPD      -0.226800
      9 C23          2.4320     3.6090     4.0740 cc         1 EPD       0.430100
     10 C24          1.5080     4.5880     4.1750 cd         1 EPD      -0.181400
     11 S1           1.3740     5.0310     5.8750 ss         1 EPD      -0.220300
     12 C25          2.5600     3.8700     6.2850 cd         1 EPD       0.448700
     13 C27          3.0540     3.6060     7.6840 c3         1 EPD      -0.113400
     14 N26          2.9690     3.2510     5.2330 nc         1 EPD      -0.685000
     15 C6           2.2510     0.0030    -1.3170 c3         1 EPD      -0.048200
     16 C7           2.1170    -1.3710    -1.9750 c3         1 EPD      -0.074400
     17 C8           2.8400    -1.4410    -3.3050 c3         1 EPD      -0.079400
     18 C9           4.3610    -1.4480    -3.1850 c3         1 EPD      -0.109700
     19 C91          4.8190    -2.2510    -1.9700 c3         1 EPD      -0.085100
     20 C10          4.9000    -0.0270    -3.1240 c3         1 EPD       0.159100
     21 O10          4.1960     0.7990    -4.0540 oh         1 EPD      -0.581800
     22 C11          6.3940     0.0170    -3.4600 c3         1 EPD      -0.200700
     23 C28          6.5570     0.2460    -4.9680 c3         1 EPD      -0.083100
     24 C12          6.9880     1.2010    -2.7260 c          1 EPD       0.556100
     25 O12          6.4580     2.2730    -2.9050 o          1 EPD      -0.430100
     26 C13          8.1840     1.0560    -1.8280 c3         1 EPD      -0.153000
     27 C30          8.0760    -0.2310    -1.0070 c3         1 EPD      -0.083600
     28 C29          9.4470     0.9480    -2.7060 c3         1 EPD      -0.083600
     29 C14          8.3630     2.2610    -0.9130 c3         1 EPD       0.178100
     30 O14          7.8930     3.4610    -1.5310 oh         1 EPD      -0.551800
     31 C15          7.7400     2.0920     0.4570 c3         1 EPD      -0.148400
     32 C16          6.2450     1.9310     0.4020 c          1 EPD       0.622100
     33 O16          5.6210     2.2510    -0.5830 o          1 EPD      -0.508000
     34 O1           5.6000     1.4230     1.4660 os         1 EPD      -0.434900
     35 H511        -0.3610    -0.9990     0.2110 hc         1 EPD       0.041367
     36 H512        -0.3610     0.3170    -0.9710 hc         1 EPD       0.041367
     37 H513        -0.3610     0.6820     0.7600 hc         1 EPD       0.041367
     38 H4           1.5610     0.0000     2.0630 ha         1 EPD       0.127000
     39 H31          3.9430    -0.6170     2.0870 hc         1 EPD       0.056200
     40 H32          4.0610    -0.4100     0.3350 hc         1 EPD       0.056200
     41 H2           3.7980     2.0540     0.6430 h1         1 EPD       0.085700
     42 H211         4.7090     2.0350     4.6110 hc         1 EPD       0.050033
     43 H212         4.6790     0.4410     3.8450 hc         1 EPD       0.050033
     44 H213         3.2330     1.0610     4.6520 hc         1 EPD       0.050033
     45 H22          2.4850     3.4390     1.8570 ha         1 EPD       0.142000
     46 H24          0.9490     5.0240     3.3560 h4         1 EPD       0.183000
     47 H271         2.7720     2.6040     7.9830 hc         1 EPD       0.057367
     48 H272         4.1330     3.7000     7.7090 hc         1 EPD       0.057367
     49 H273         2.6120     4.3240     8.3640 hc         1 EPD       0.057367
     50 H61          3.2980     0.2210    -1.1460 hc         1 EPD       0.061200
     51 H62          1.8260     0.7580    -1.9670 hc         1 EPD       0.061200
     52 H71          2.5290    -2.1210    -1.3110 hc         1 EPD       0.041200
     53 H72          1.0660    -1.5830    -2.1350 hc         1 EPD       0.041200
     54 H81          2.5310    -2.3450    -3.8170 hc         1 EPD       0.047200
     55 H82          2.5450    -0.5870    -3.9020 hc         1 EPD       0.047200
     56 H9           4.7650    -1.9220    -4.0710 hc         1 EPD       0.043700
     57 H911         4.1430    -3.0830    -1.8120 hc         1 EPD       0.036367
     58 H912         4.8180    -1.6130    -1.0940 hc         1 EPD       0.036367
     59 H913         5.8200    -2.6270    -2.1420 hc         1 EPD       0.036367
     60 H10          4.7520     0.3630    -2.1240 h1         1 EPD       0.094700
     61 H3           4.1250     0.3510    -4.8810 ho         1 EPD       0.393000
     62 H11          6.8810    -0.9030    -3.1580 hc         1 EPD       0.057700
     63 H281         5.9780    -0.4920    -5.5100 hc         1 EPD       0.042700
     64 H282         7.6020     0.1530    -5.2370 hc         1 EPD       0.042700
     65 H283         6.2050     1.2390    -5.2220 hc         1 EPD       0.042700
     66 H301         8.2190    -1.0870    -1.6560 hc         1 EPD       0.041700
     67 H302         8.8350    -0.2320    -0.2350 hc         1 EPD       0.041700
     68 H303         7.0950    -0.2860    -0.5490 hc         1 EPD       0.041700
     69 H291         9.4080     0.0330    -3.2840 hc         1 EPD       0.041700
     70 H292         9.4940     1.7980    -3.3770 hc         1 EPD       0.041700
     71 H293        10.3270     0.9390    -2.0740 hc         1 EPD       0.041700
     72 H14          9.4290     2.3820    -0.7590 h1         1 EPD       0.026700
     73 H1           8.4850     4.1680    -1.3360 ho         1 EPD       0.388000
     74 H151         7.9750     2.9620     1.0580 hc         1 EPD       0.074700
     75 H152         8.1680     1.2150     0.9290 hc         1 EPD       0.074700
@<TRIPOS>BOND
     1     1     2 1
     2     1    35 1
     3     1    36 1
     4     1    37 1
     5     2     3 2
     6     2    15 1
     7     3     4 1
     8     3    38 1
     9     4     5 1
    10     4    39 1
    11     4    40 1
    12     5     6 1
    13     5    34 1
    14     5    41 1
    15     6     7 1
    16     6     8 2
    17     7    42 1
    18     7    43 1
    19     7    44 1
    20     8     9 1
    21     8    45 1
    22     9    10 2
    23     9    14 1
    24    10    11 1
    25    10    46 1
    26    11    12 1
    27    12    13 1
    28    12    14 2
    29    13    47 1
    30    13    48 1
    31    13    49 1
    32    15    16 1
    33    15    50 1
    34    15    51 1
    35    16    17 1
    36    16    52 1
    37    16    53 1
    38    17    18 1
    39    17    54 1
    40    17    55 1
    41    18    19 1
    42    18    20 1
    43    18    56 1
    44    19    57 1
    45    19    58 1
    46    19    59 1
    47    20    21 1
    48    20    22 1
    49    20    60 1
    50    21    61 1
    51    22    23 1
    52    22    24 1
    53    22    62 1
    54    23    63 1
    55    23    64 1
    56    23    65 1
    57    24    25 2
    58    24    26 1
    59    26    27 1
    60    26    28 1
    61    26    29 1
    62    27    66 1
    63    27    67 1
    64    27    68 1
    65    28    69 1
    66    28    70 1
    67    28    71 1
    68    29    30 1
    69    29    31 1
    70    29    72 1
    71    30    73 1
    72    31    32 1
    73    31    74 1
    74    31    75 1
    75    32    33 2
    76    32    34 1
@<TRIPOS>SUBSTRUCTURE
     1 EPD         1 TEMP              0 ****  ****    0 ROOT
