@<TRIPOS>MOLECULE
EPE
   32    32     1     0     0
SMALL
bcc


@<TRIPOS>ATOM
      1 N1           0.0000     0.0000     0.0000 n3         1 EPE      -0.537600
      2 C2           1.4670     0.0000     0.0000 c3         1 EPE       0.136300
      3 C3           1.9810     0.0000     1.4400 c3         1 EPE       0.131300
      4 N4           1.5560    -1.2310     2.1160 n3         1 EPE      -0.505600
      5 C5           0.0890    -1.2310     2.1160 c3         1 EPE       0.131300
      6 C6          -0.4260    -1.2310     0.6760 c3         1 EPE       0.136300
      7 C7           1.9790    -1.1100     3.5180 c3         1 EPE       0.130800
      8 C8           1.5640    -2.3670     4.2850 c3         1 EPE       0.215400
      9 O8           2.1850    -3.5100     3.6980 oh         1 EPE      -0.568800
     10 C9          -0.4220    -0.1210    -1.4010 c3         1 EPE       0.170800
     11 C10         -1.9490    -0.1260    -1.4750 c3         1 EPE      -0.064600
     12 S           -2.4720    -0.2740    -3.2050 s6         1 EPE       0.947800
     13 O1S         -2.1950     0.9090    -3.9400 o          1 EPE      -0.657867
     14 O2S         -2.1960    -1.5680    -3.7260 o          1 EPE      -0.657867
     15 O3S         -3.9910    -0.2670    -3.1120 o          1 EPE      -0.657867
     16 H21          1.8260    -0.8860    -0.5100 h1         1 EPE       0.023200
     17 H22          1.8260     0.8860    -0.5100 h1         1 EPE       0.023200
     18 H31          1.5770     0.8570     1.9660 h1         1 EPE       0.011200
     19 H32          3.0630     0.0510     1.4350 h1         1 EPE       0.011200
     20 H51         -0.2700    -0.3450     2.6260 h1         1 EPE       0.011200
     21 H52         -0.2700    -2.1170     2.6260 h1         1 EPE       0.011200
     22 H61         -0.0210    -2.0880     0.1500 h1         1 EPE       0.023200
     23 H62         -1.5080    -1.2820     0.6810 h1         1 EPE       0.023200
     24 H71          3.0550    -0.9990     3.5620 h1         1 EPE       0.011700
     25 H72          1.5080    -0.2430     3.9640 h1         1 EPE       0.011700
     26 H81          0.4880    -2.4780     4.2400 h1         1 EPE      -0.013800
     27 H82          1.8760    -2.2780     5.3180 h1         1 EPE      -0.013800
     28 HO8          2.2590    -4.1940     4.3430 ho         1 EPE       0.374000
     29 H91         -0.0370     0.7180    -1.9680 h1         1 EPE       0.015700
     30 H92         -0.0370    -1.0440    -1.8160 h1         1 EPE       0.015700
     31 H101        -2.3340     0.7970    -1.0590 h1         1 EPE       0.057700
     32 H102        -2.3350    -0.9650    -0.9090 h1         1 EPE       0.057700
@<TRIPOS>BOND
     1     1     2 1   
     2     1     6 1   
     3     1    10 1   
     4     2     3 1   
     5     2    16 1   
     6     2    17 1   
     7     3     4 1   
     8     3    18 1   
     9     3    19 1   
    10     4     5 1   
    11     4     7 1   
    12     5     6 1   
    13     5    20 1   
    14     5    21 1   
    15     6    22 1   
    16     6    23 1   
    17     7     8 1   
    18     7    24 1   
    19     7    25 1   
    20     8     9 1   
    21     8    26 1   
    22     8    27 1   
    23     9    28 1   
    24    10    11 1   
    25    10    29 1   
    26    10    30 1   
    27    11    12 1   
    28    11    31 1   
    29    11    32 1   
    30    12    13 1   
    31    12    14 1   
    32    12    15 1   
@<TRIPOS>SUBSTRUCTURE
     1 EPE         1 TEMP              0 ****  ****    0 ROOT
