@<TRIPOS>MOLECULE
EPH
  116   115     1     0     0
SMALL
bcc


@<TRIPOS>ATOM
      1 C1         -0.4890    1.0670   -0.6310 c3        1 EPH      0.135400
      2 C2          0.9580    0.6570   -0.3620 c3        1 EPH      0.110100
      3 C4         -1.6980    0.0750   -2.4740 c         1 EPH      0.635100
      4 O2         -1.1580   -0.0560   -1.2310 os        1 EPH     -0.450900
      5 O4         -1.6970    1.1710   -3.0390 o         1 EPH     -0.543000
      6 C18        -2.2440   -1.2250   -2.9880 c3        1 EPH     -0.131400
      7 C19        -3.4930   -1.0040   -3.8120 c3        1 EPH     -0.079400
      8 C20        -3.9590   -2.2970   -4.4440 c3        1 EPH     -0.078400
      9 C21        -5.2200   -2.0860   -5.2530 c3        1 EPH     -0.080400
     10 C22        -5.6910   -3.3800   -5.8840 c3        1 EPH     -0.076400
     11 C23        -6.9410   -3.1870   -6.7170 c3        1 EPH     -0.049200
     12 C24        -6.6960   -2.4430   -7.9750 c2        1 EPH     -0.166200
     13 C25        -7.6630   -2.0800   -8.8250 c2        1 EPH     -0.183200
     14 C26        -9.1010   -2.3700   -8.6080 c3        1 EPH     -0.045200
     15 C27        -9.9630   -2.0160   -9.8030 c3        1 EPH     -0.047200
     16 C28       -10.0280   -0.5580  -10.0590 c2        1 EPH     -0.168200
     17 C29       -10.8570    0.0060  -10.9450 c2        1 EPH     -0.181200
     18 C30       -11.8200   -0.7560  -11.7730 c3        1 EPH     -0.046200
     19 C31       -12.5100    0.1210  -12.8000 c3        1 EPH     -0.047200
     20 C32       -13.4710   -0.6450  -13.6290 c2        1 EPH     -0.167200
     21 C33       -14.2140   -0.1250  -14.6110 c2        1 EPH     -0.179200
     22 C34       -14.2090    1.2860  -15.0390 c3        1 EPH     -0.063900
     23 C37         1.3940    1.0010    1.0730 c3        1 EPH      0.177400
     24 O5          1.0260    2.2870    1.4450 os        1 EPH     -0.585200
     25 C3          3.0550    1.0100   -1.4750 c         1 EPH      0.674100
     26 O1          1.7480    1.3910   -1.3130 os        1 EPH     -0.436900
     27 O3          3.3680   -0.1480   -1.1810 o         1 EPH     -0.585000
     28 C5          3.9040    2.1150   -2.0090 c3        1 EPH     -0.155400
     29 C6          5.1440    1.5920   -2.6960 c3        1 EPH     -0.070400
     30 C7          6.0770    2.7290   -3.0530 c3        1 EPH     -0.079400
     31 C8          7.3250    2.2190   -3.7400 c3        1 EPH     -0.077400
     32 C9          8.2620    3.3540   -4.0910 c3        1 EPH     -0.080400
     33 C10         9.5130    2.8440   -4.7730 c3        1 EPH     -0.075400
     34 C11        10.4510    3.9840   -5.1180 c3        1 EPH     -0.052200
     35 C12        11.6920    3.4950   -5.7660 c2        1 EPH     -0.158200
     36 C13        12.2490    4.0770   -6.8310 c2        1 EPH     -0.182200
     37 C14        13.5180    3.6120   -7.4470 c3        1 EPH     -0.016000
     38 C15        13.4240    3.5540   -8.9280 c2        1 EPH     -0.160200
     39 C16        14.3900    3.9810   -9.7450 c2        1 EPH     -0.180200
     40 C17        14.3180    3.8800  -11.2230 c3        1 EPH     -0.046200
     41 C35        14.7600    5.1680  -11.8920 c3        1 EPH     -0.077400
     42 C36        14.6990    5.0550  -13.3930 c3        1 EPH     -0.093100
     43 P1          2.2710    3.3260    1.8350 p5        1 EPH      1.434800
     44 O6          2.3730    3.3320    3.3040 o         1 EPH     -0.829500
     45 O7          3.3760    3.0610    0.8930 o         1 EPH     -0.829500
     46 O8          1.4800    4.6890    1.3660 os        1 EPH     -0.566200
     47 C38         0.5460    5.2150    2.2590 c3        1 EPH      0.143400
     48 C39        -0.8590    5.2290    1.6310 c3        1 EPH      0.131800
     49 N1         -1.4010    3.9580    1.2170 n3        1 EPH     -0.905800
     50 H11        -0.5400    1.9780   -1.2820 h1        1 EPH      0.092200
     51 H12A       -1.0290    1.2440    0.3370 h1        1 EPH      0.092200
     52 H2          1.1030   -0.4460   -0.5330 h1        1 EPH      0.068700
     53 H181       -1.4400   -1.6980   -3.6140 hc        1 EPH      0.073200
     54 H182       -2.4550   -1.9110   -2.1260 hc        1 EPH      0.073200
     55 H191       -3.2850   -0.2390   -4.6070 hc        1 EPH      0.057200
     56 H192       -4.3040   -0.5870   -3.1590 hc        1 EPH      0.057200
     57 H201       -4.1480   -3.0620   -3.6440 hc        1 EPH      0.038200
     58 H202       -3.1500   -2.7050   -5.1070 hc        1 EPH      0.038200
     59 H211       -6.0270   -1.6750   -4.5910 hc        1 EPH      0.043700
     60 H212       -5.0310   -1.3240   -6.0550 hc        1 EPH      0.043700
     61 H221       -4.8730   -3.8060   -6.5230 hc        1 EPH      0.039200
     62 H222       -5.9040   -4.1290   -5.0760 hc        1 EPH      0.039200
     63 H231       -7.7180   -2.6470   -6.1090 hc        1 EPH      0.046200
     64 H232       -7.3710   -4.1960   -6.9700 hc        1 EPH      0.046200
     65 H24        -5.6440   -2.1920   -8.1900 ha        1 EPH      0.126000
     66 H25        -7.4180   -1.5280   -9.7460 ha        1 EPH      0.124000
     67 H261       -9.4600   -1.8030   -7.7050 hc        1 EPH      0.048200
     68 H262       -9.2300   -3.4630   -8.3770 hc        1 EPH      0.048200
     69 H271      -11.0030   -2.4110   -9.6320 hc        1 EPH      0.047200
     70 H272       -9.5660   -2.5340  -10.7200 hc        1 EPH      0.047200
     71 H28        -9.3340    0.0640   -9.4700 ha        1 EPH      0.129000
     72 H29       -10.8530    1.0990  -11.0910 ha        1 EPH      0.122000
     73 H301      -11.2850   -1.5970  -12.2950 hc        1 EPH      0.047700
     74 H302      -12.5910   -1.2300  -11.1050 hc        1 EPH      0.047700
     75 H311      -13.0480    0.9560  -12.2740 hc        1 EPH      0.050200
     76 H312      -11.7360    0.5970  -13.4620 hc        1 EPH      0.050200
     77 H32       -13.5530   -1.7190  -13.3910 ha        1 EPH      0.119000
     78 H33       -14.9050   -0.7740  -15.1770 ha        1 EPH      0.115000
     79 H341      -15.2330    1.7240  -14.9290 hc        1 EPH      0.040367
     80 H342      -13.9150    1.3590  -16.1160 hc        1 EPH      0.040367
     81 H343      -13.4970    1.9050  -14.4390 hc        1 EPH      0.040367
     82 H371        0.8800    0.2690    1.7600 h1        1 EPH      0.037700
     83 H372        2.5120    0.8710    1.1390 h1        1 EPH      0.037700
     84 H51         3.2990    2.7550   -2.7030 hc        1 EPH      0.116200
     85 H52         4.1680    2.7490   -1.1050 hc        1 EPH      0.116200
     86 H61         5.6660    0.8670   -2.0160 hc        1 EPH      0.043200
     87 H62         4.8600    1.0280   -3.6230 hc        1 EPH      0.043200
     88 H71         6.3590    3.2860   -2.1200 hc        1 EPH      0.044700
     89 H72         5.5470    3.4550   -3.7240 hc        1 EPH      0.044700
     90 H81         7.8510    1.4900   -3.0680 hc        1 EPH      0.036700
     91 H82         7.0420    1.6620   -4.6720 hc        1 EPH      0.036700
     92 H91         8.5420    3.9110   -3.1580 hc        1 EPH      0.040200
     93 H92         7.7360    4.0810   -4.7640 hc        1 EPH      0.040200
     94 H101       10.0370    2.1150   -4.1000 hc        1 EPH      0.039700
     95 H102        9.2340    2.2910   -5.7080 hc        1 EPH      0.039700
     96 H111       10.7300    4.5330   -4.1760 hc        1 EPH      0.047700
     97 H112        9.9190    4.7190   -5.7800 hc        1 EPH      0.047700
     98 H12        12.1450    2.6050   -5.2980 ha        1 EPH      0.119000
     99 H13        11.7930    4.9600   -7.3070 ha        1 EPH      0.123000
    100 H141       13.7880    2.5880   -7.0670 hc        1 EPH      0.049700
    101 H142       14.3460    4.3070   -7.1330 hc        1 EPH      0.049700
    102 H15        12.4920    3.1140   -9.3210 ha        1 EPH      0.125000
    103 H16        15.3160    4.4300   -9.3500 ha        1 EPH      0.118000
    104 H171       14.9850    3.0400  -11.5600 hc        1 EPH      0.044700
    105 H172       13.2760    3.6260  -11.5540 hc        1 EPH      0.044700
    106 H351       14.1020    6.0090  -11.5500 hc        1 EPH      0.040200
    107 H352       15.8070    5.4150  -11.5740 hc        1 EPH      0.040200
    108 H361       15.3640    4.2330  -13.7550 hc        1 EPH      0.031700
    109 H362       13.6580    4.8350  -13.7310 hc        1 EPH      0.031700
    110 H363       15.0290    6.0100  -13.8680 hc        1 EPH      0.031700
    111 H381        0.5480    4.6270    3.2200 h1        1 EPH      0.033700
    112 H382        0.8350    6.2810    2.4830 h1        1 EPH      0.033700
    113 H391       -1.5630    5.6740    2.3900 h1        1 EPH      0.032700
    114 H392       -0.8380    5.9070    0.7330 h1        1 EPH      0.032700
    115 HN11       -1.2880    3.2830    1.9530 hn        1 EPH      0.350300
    116 HN12       -0.8860    3.6140    0.4250 hn        1 EPH      0.350300
@<TRIPOS>BOND
     1    1    2 1   
     2    1    4 1   
     3    1   50 1   
     4    1   51 1   
     5    2   23 1   
     6    2   26 1   
     7    2   52 1   
     8    3    4 1   
     9    3    5 2   
    10    3    6 1   
    11    6    7 1   
    12    6   53 1   
    13    6   54 1   
    14    7    8 1   
    15    7   55 1   
    16    7   56 1   
    17    8    9 1   
    18    8   57 1   
    19    8   58 1   
    20    9   10 1   
    21    9   59 1   
    22    9   60 1   
    23   10   11 1   
    24   10   61 1   
    25   10   62 1   
    26   11   12 1   
    27   11   63 1   
    28   11   64 1   
    29   12   13 2   
    30   12   65 1   
    31   13   14 1   
    32   13   66 1   
    33   14   15 1   
    34   14   67 1   
    35   14   68 1   
    36   15   16 1   
    37   15   69 1   
    38   15   70 1   
    39   16   17 2   
    40   16   71 1   
    41   17   18 1   
    42   17   72 1   
    43   18   19 1   
    44   18   73 1   
    45   18   74 1   
    46   19   20 1   
    47   19   75 1   
    48   19   76 1   
    49   20   21 2   
    50   20   77 1   
    51   21   22 1   
    52   21   78 1   
    53   22   79 1   
    54   22   80 1   
    55   22   81 1   
    56   23   24 1   
    57   23   82 1   
    58   23   83 1   
    59   24   43 1   
    60   25   26 1   
    61   25   27 2   
    62   25   28 1   
    63   28   29 1   
    64   28   84 1   
    65   28   85 1   
    66   29   30 1   
    67   29   86 1   
    68   29   87 1   
    69   30   31 1   
    70   30   88 1   
    71   30   89 1   
    72   31   32 1   
    73   31   90 1   
    74   31   91 1   
    75   32   33 1   
    76   32   92 1   
    77   32   93 1   
    78   33   34 1   
    79   33   94 1   
    80   33   95 1   
    81   34   35 1   
    82   34   96 1   
    83   34   97 1   
    84   35   36 2   
    85   35   98 1   
    86   36   37 1   
    87   36   99 1   
    88   37   38 1   
    89   37  100 1   
    90   37  101 1   
    91   38   39 2   
    92   38  102 1   
    93   39   40 1   
    94   39  103 1   
    95   40   41 1   
    96   40  104 1   
    97   40  105 1   
    98   41   42 1   
    99   41  106 1   
   100   41  107 1   
   101   42  108 1   
   102   42  109 1   
   103   42  110 1   
   104   43   44 1   
   105   43   45 1   
   106   43   46 1   
   107   46   47 1   
   108   47   48 1   
   109   47  111 1   
   110   47  112 1   
   111   48   49 1   
   112   48  113 1   
   113   48  114 1   
   114   49  115 1   
   115   49  116 1   
@<TRIPOS>SUBSTRUCTURE
     1 EPH         1 TEMP              0 ****  ****    0 ROOT
