@<TRIPOS>MOLECULE
EPI
   23    23     1     0     0
SMALL
bcc


@<TRIPOS>ATOM
      1 N1           0.0000     0.0000     0.0000 n7         1 EPI      -0.570200
      2 C2           1.4650     0.0000     0.0000 c3         1 EPI       0.140800
      3 C3           1.9830     0.0000     1.4390 c3         1 EPI      -0.025400
      4 C4           1.5010     1.2690     2.1470 c3         1 EPI      -0.053700
      5 C5          -0.0240     1.3450     2.0480 c3         1 EPI      -0.025400
      6 C6          -0.4370     1.2740     0.5780 c3         1 EPI       0.140800
      7 C1'          1.9190     1.2240     3.6190 c3         1 EPI      -0.023400
      8 C2'          1.4380     2.4930     4.3240 c3         1 EPI       0.000900
      9 HN1         -0.3340    -0.0720    -0.9410 hn         1 EPI       0.249800
     10 H21          1.8240    -0.8860    -0.5100 h1         1 EPI       0.003950
     11 H22          1.8240     0.8860    -0.5100 h1         1 EPI       0.003950
     12 H31          3.0660    -0.0200     1.4330 hc         1 EPI       0.022450
     13 H32          1.6030    -0.8700     1.9600 hc         1 EPI       0.022450
     14 H4           1.9380     2.1370     1.6680 hc         1 EPI       0.026700
     15 H51         -0.3660     2.2800     2.4740 hc         1 EPI       0.022450
     16 H52         -0.4620     0.5140     2.5860 hc         1 EPI       0.022450
     17 H61         -1.5150     1.3510     0.5040 h1         1 EPI       0.003950
     18 H62          0.0250     2.0910     0.0360 h1         1 EPI       0.003950
     19 H1'1         2.9980     1.1610     3.6860 hc         1 EPI       0.014700
     20 H1'2         1.4760     0.3570     4.0930 hc         1 EPI       0.014700
     21 H2'1         1.5470     3.3400     3.6590 hc         1 EPI       0.002033
     22 H2'2         2.0290     2.6560     5.2170 hc         1 EPI       0.002033
     23 H2'3         0.3950     2.3810     4.5980 hc         1 EPI       0.002033
@<TRIPOS>BOND
     1     1     2 1   
     2     1     6 1   
     3     1     9 1   
     4     2     3 1   
     5     2    10 1   
     6     2    11 1   
     7     3     4 1   
     8     3    12 1   
     9     3    13 1   
    10     4     5 1   
    11     4     7 1   
    12     4    14 1   
    13     5     6 1   
    14     5    15 1   
    15     5    16 1   
    16     6    17 1   
    17     6    18 1   
    18     7     8 1   
    19     7    19 1   
    20     7    20 1   
    21     8    21 1   
    22     8    22 1   
    23     8    23 1   
@<TRIPOS>SUBSTRUCTURE
     1 EPI         1 TEMP              0 ****  ****    0 ROOT
