@<TRIPOS>MOLECULE
molecule
   27    29     1     0     0
SMALL
bcc


@<TRIPOS>ATOM
      1 C1           0.0000     0.0000     0.0000 c3         1 EPJ      -0.015400
      2 C2           1.5470     0.0000     0.0000 c3         1 EPJ      -0.071400
      3 C3           1.9120     0.0000     1.5150 c3         1 EPJ       0.128500
      4 C4           1.5670    -1.4360     2.0130 c3         1 EPJ      -0.117400
      5 C5           0.0190    -1.4570     2.0130 c3         1 EPJ      -0.118400
      6 C6          -0.3680    -0.0040     1.5140 c3         1 EPJ       0.140500
      7 N1           0.7730     0.8040     2.0850 n7         1 EPJ      -0.777200
      8 C7          -0.5310     1.2380    -0.6730 ca         1 EPJ      -0.200600
      9 C8           0.0800     2.4650    -0.4660 ca         1 EPJ      -0.066000
     10 C9          -0.4410     3.5790    -1.1060 ca         1 EPJ      -0.242300
     11 C10         -1.5480     3.4300    -1.9230 ca         1 EPJ       0.515300
     12 Cl          -2.2130     4.8150    -2.7300 cl         1 EPJ      -0.164000
     13 N2          -2.1070     2.2460    -2.0910 nb         1 EPJ      -0.689000
     14 C11         -1.6330     1.1660    -1.5010 ca         1 EPJ       0.433200
     15 H1          -0.3800    -0.8910    -0.4860 hc         1 EPJ       0.061700
     16 H2C1         1.9280    -0.8910    -0.4840 hc         1 EPJ       0.054200
     17 H2C2         1.9280     0.8910    -0.4840 hc         1 EPJ       0.054200
     18 H3           2.9040     0.3590     1.7610 h1         1 EPJ       0.089700
     19 H4C1         1.9590    -2.1810     1.3310 hc         1 EPJ       0.050200
     20 H4C2         1.9500    -1.5950     3.0140 hc         1 EPJ       0.050200
     21 H5C1        -0.3600    -1.6310     3.0120 hc         1 EPJ       0.050700
     22 H5C2        -0.3520    -2.2080     1.3260 hc         1 EPJ       0.050700
     23 H6          -1.3640     0.3400     1.7660 h1         1 EPJ       0.096700
     24 HA           0.7730     0.7220     3.0820 hn         1 EPJ       0.346800
     25 H8           0.9460     2.5520     0.1800 ha         1 EPJ       0.165000
     26 H9           0.0110     4.5530    -0.9680 ha         1 EPJ       0.150000
     27 H11         -2.1190     0.2110    -1.6630 h4         1 EPJ       0.026100
@<TRIPOS>BOND
     1     1     2 1
     2     1     6 1
     3     1     8 1
     4     1    15 1
     5     2     3 1
     6     2    16 1
     7     2    17 1
     8     3     4 1
     9     3     7 1
    10     3    18 1
    11     4     5 1
    12     4    19 1
    13     4    20 1
    14     5     6 1
    15     5    21 1
    16     5    22 1
    17     6     7 1
    18     6    23 1
    19     7    24 1
    20     8     9 ar
    21     8    14 ar
    22     9    10 ar
    23     9    25 1
    24    10    11 ar
    25    10    26 1
    26    11    12 1
    27    11    13 ar
    28    13    14 ar
    29    14    27 1
@<TRIPOS>SUBSTRUCTURE
     1 EPJ         1 TEMP              0 ****  ****    0 ROOT
