@<TRIPOS>MOLECULE
EPK
   40    42     1     0     0
SMALL
bcc


@<TRIPOS>ATOM
      1 C1           0.0000     0.0000     0.0000 cc         1 EPK      -0.187700
      2 C2           1.3890     0.0000     0.0000 cd         1 EPK       0.215400
      3 C3           1.3980     0.0010     2.3270 cc         1 EPK       0.418800
      4 N1           0.0340    -0.0070     2.3780 n          1 EPK       0.013700
      5 N2           2.0450     0.0000     1.1910 nd         1 EPK      -0.626100
      6 C4          -0.6840    -0.0000     1.2380 c          1 EPK       0.674100
      7 C5           1.9140    -0.0010    -1.3550 cd         1 EPK      -0.061000
      8 S1          -0.5970     0.0060    -1.6520 ss         1 EPK      -0.164800
      9 C6           0.9730    -0.0010    -2.3060 cc         1 EPK       0.009900
     10 N3           2.1100    -0.0050     3.5010 nu         1 EPK      -0.467200
     11 O1          -1.9040     0.0060     1.2730 o          1 EPK      -0.678500
     12 C7           3.3650     0.0000    -1.6560 ca         1 EPK      -0.130300
     13 N4           5.5050     0.9220    -1.3130 nb         1 EPK      -0.587000
     14 C8          -0.6490    -0.0060     3.6750 c3         1 EPK       0.016000
     15 C9           4.2160     0.9210    -1.0450 ca         1 EPK       0.427200
     16 C10          3.5750     0.0020     3.4690 c3         1 EPK       0.136500
     17 C11          6.0410     0.0640    -2.1590 ca         1 EPK       0.400200
     18 C12          3.9040    -0.9250    -2.5540 ca         1 EPK      -0.065000
     19 C13         -0.8950     1.4360     4.1210 c3         1 EPK      -0.016100
     20 C14          4.0750     1.4430     3.3440 c3         1 EPK      -0.011100
     21 C15          4.1170    -0.6150     4.7600 c3         1 EPK      -0.011100
     22 C16          5.2660    -0.8830    -2.8010 ca         1 EPK      -0.224300
     23 H1           1.1860    -0.0030    -3.3680 h4         1 EPK       0.154000
     24 H2           1.6290    -0.0550     4.3770 hn         1 EPK       0.304800
     25 H3          -1.5970    -0.5220     3.5830 h1         1 EPK       0.042200
     26 H4          -0.0330    -0.5110     4.4080 h1         1 EPK       0.042200
     27 H5           3.8120     1.6410    -0.3440 h4         1 EPK      -0.009900
     28 H6           3.9210    -0.5760     2.6200 h1         1 EPK       0.063700
     29 H7           7.1070     0.1000    -2.3510 h4         1 EPK      -0.022900
     30 H8           3.2730    -1.6570    -3.0430 ha         1 EPK       0.112000
     31 H9          -0.5930     1.5510     5.1550 hc         1 EPK       0.016033
     32 H10         -1.9480     1.6700     4.0240 hc         1 EPK       0.016033
     33 H11         -0.3170     2.1100     3.5000 hc         1 EPK       0.016033
     34 H12          5.1280     1.4390     3.0890 hc         1 EPK       0.011867
     35 H13          3.9330     1.9570     4.2860 hc         1 EPK       0.011867
     36 H14          3.5170     1.9520     2.5670 hc         1 EPK       0.011867
     37 H15          3.7790    -0.0330     5.6080 hc         1 EPK       0.011867
     38 H16          3.7560    -1.6320     4.8530 hc         1 EPK       0.011867
     39 H17          5.2000    -0.6170     4.7320 hc         1 EPK       0.011867
     40 H18          5.7190    -1.5840    -3.4930 ha         1 EPK       0.112000
@<TRIPOS>BOND
     1     1     2 2   
     2     1     6 1   
     3     1     8 1   
     4     2     5 1   
     5     2     7 1   
     6     3     4 1   
     7     3     5 2   
     8     3    10 1   
     9     4     6 1   
    10     4    14 1   
    11     6    11 2   
    12     7     9 2   
    13     7    12 1   
    14     8     9 1   
    15     9    23 1   
    16    10    16 1   
    17    10    24 1   
    18    12    15 ar  
    19    12    18 ar  
    20    13    15 ar  
    21    13    17 ar  
    22    14    19 1   
    23    14    25 1   
    24    14    26 1   
    25    15    27 1   
    26    16    20 1   
    27    16    21 1   
    28    16    28 1   
    29    17    22 ar  
    30    17    29 1   
    31    18    22 ar  
    32    18    30 1   
    33    19    31 1   
    34    19    32 1   
    35    19    33 1   
    36    20    34 1   
    37    20    35 1   
    38    20    36 1   
    39    21    37 1   
    40    21    38 1   
    41    21    39 1   
    42    22    40 1   
@<TRIPOS>SUBSTRUCTURE
     1 EPK         1 TEMP              0 ****  ****    0 ROOT
