@<TRIPOS>MOLECULE
EPL
   34    34     1     0     0
SMALL
bcc


@<TRIPOS>ATOM
      1 O1          0.1480   -0.4990    1.4450 o         1 EPL     -0.785300
      2 P           1.5750   -0.4850    1.1790 p5        1 EPL      1.615500
      3 O2          2.5650   -0.7260    2.4010 os        1 EPL     -0.565200
      4 C8          3.9560   -0.8350    2.1530 c3        1 EPL      0.173900
      5 C9          4.6960    0.2490    2.9060 c3        1 EPL     -0.107100
      6 O4          2.0900   -1.5540    0.1070 os        1 EPL     -0.565200
      7 C10         1.1680   -1.8030   -0.9410 c3        1 EPL      0.173900
      8 C11         1.7080   -2.9100   -1.8100 c3        1 EPL     -0.107100
      9 O3          2.1860    0.8600    0.5150 os        1 EPL     -0.509500
     10 C4          1.5660    2.0830    0.6070 ca        1 EPL      0.117100
     11 C2          0.7030    2.5020   -0.4240 ca        1 EPL     -0.115500
     12 C3          0.1590    3.7770   -0.3910 ca        1 EPL     -0.159500
     13 C1          0.4910    4.6490    0.6640 ca        1 EPL      0.118100
     14 O5         -0.1060    5.8930    0.5970 os        1 EPL     -0.324900
     15 C7          0.1700    6.7810    1.6730 c3        1 EPL      0.112700
     16 C5          1.3720    4.2450    1.6740 ca        1 EPL     -0.159500
     17 C6          1.9190    2.9650    1.6390 ca        1 EPL     -0.115500
     18 H91         4.4470    1.2570    2.4950 hc        1 EPL      0.048867
     19 H92         4.4150    0.2280    3.9860 hc        1 EPL      0.048867
     20 H93         5.7940    0.0790    2.8090 hc        1 EPL      0.048867
     21 H81         4.2730   -1.8490    2.5270 h1        1 EPL      0.048200
     22 H82         4.1450   -0.7640    1.0470 h1        1 EPL      0.048200
     23 H101        0.1810   -2.0810   -0.4760 h1        1 EPL      0.048200
     24 H102        1.0500   -0.8450   -1.5190 h1        1 EPL      0.048200
     25 H111        2.6990   -2.6230   -2.2360 hc        1 EPL      0.048867
     26 H112        1.8410   -3.8430   -1.2120 hc        1 EPL      0.048867
     27 H113        0.9920   -3.1070   -2.6430 hc        1 EPL      0.048867
     28 H6          2.6280    2.6490    2.4200 ha        1 EPL      0.143000
     29 H5          1.6440    4.9250    2.4940 ha        1 EPL      0.148000
     30 H71        -0.1660    6.3420    2.6440 h1        1 EPL      0.045700
     31 H72        -0.4340    7.6890    1.4210 h1        1 EPL      0.045700
     32 H73         1.2580    7.0290    1.7100 h1        1 EPL      0.045700
     33 H3         -0.5280    4.1200   -1.1790 ha        1 EPL      0.148000
     34 H2          0.4590    1.8200   -1.2510 ha        1 EPL      0.143000
@<TRIPOS>BOND
     1    1    2 2   
     2    2    3 1   
     3    2    6 1   
     4    2    9 1   
     5    3    4 1   
     6    4    5 1   
     7    4   21 1   
     8    4   22 1   
     9    5   18 1   
    10    5   19 1   
    11    5   20 1   
    12    6    7 1   
    13    7    8 1   
    14    7   23 1   
    15    7   24 1   
    16    8   25 1   
    17    8   26 1   
    18    8   27 1   
    19    9   10 1   
    20   10   11 ar  
    21   10   17 ar  
    22   11   12 ar  
    23   11   34 1   
    24   12   13 ar  
    25   12   33 1   
    26   13   14 1   
    27   13   16 ar  
    28   14   15 1   
    29   15   30 1   
    30   15   31 1   
    31   15   32 1   
    32   16   17 ar  
    33   16   29 1   
    34   17   28 1   
@<TRIPOS>SUBSTRUCTURE
     1 EPL         1 TEMP              0 ****  ****    0 ROOT
