@<TRIPOS>MOLECULE
molecule
   34    34     1     0     0
SMALL
bcc


@<TRIPOS>ATOM
      1 O1           0.0000     0.0000     0.0000 o          1 EPL      -0.781300
      2 P            1.4800     0.0000     0.0000 p5         1 EPL       1.589500
      3 O2           2.0160     0.0000     1.5180 os         1 EPL      -0.585200
      4 C8           3.4050    -0.0000     1.8530 c3         1 EPL       0.195900
      5 C9           3.5630    -0.0020     3.3750 c3         1 EPL      -0.096100
      6 O4           2.0170    -1.3140    -0.7590 os         1 EPL      -0.585200
      7 C10          1.6270    -2.6390    -0.3910 c3         1 EPL       0.195900
      8 C11          2.3170    -3.6480    -1.3120 c3         1 EPL      -0.096100
      9 O3           2.0170     1.3150    -0.7580 os         1 EPL      -0.455500
     10 C4           1.5290     2.4810    -0.2570 ca         1 EPL       0.073100
     11 C2           0.3500     3.0130    -0.7570 ca         1 EPL      -0.094500
     12 C3          -0.1440     4.1970    -0.2470 ca         1 EPL      -0.175000
     13 C1           0.5370     4.8550     0.7650 ca         1 EPL       0.143100
     14 O5           0.0500     6.0210     1.2680 os         1 EPL      -0.325900
     15 C7           0.8040     6.6430     2.3100 c3         1 EPL       0.128700
     16 C5           1.7150     4.3230     1.2680 ca         1 EPL      -0.175000
     17 C6           2.2080     3.1360     0.7610 ca         1 EPL      -0.094500
     18 H91          3.4050    -1.0040     3.7540 hc         1 EPL       0.048367
     19 H92          2.8340     0.6690     3.8150 hc         1 EPL       0.048367
     20 H93          4.5610     0.3300     3.6350 hc         1 EPL       0.048367
     21 H81          3.8760     0.8850     1.4420 h1         1 EPL       0.033700
     22 H82          3.8760    -0.8840     1.4410 h1         1 EPL       0.033700
     23 H101         0.5530    -2.7390    -0.4850 h1         1 EPL       0.033700
     24 H102         1.9180    -2.8290     0.6350 h1         1 EPL       0.033700
     25 H111         2.0380    -3.4480    -2.3390 hc         1 EPL       0.048367
     26 H112         2.0090    -4.6510    -1.0430 hc         1 EPL       0.048367
     27 H113         3.3910    -3.5590    -1.2050 hc         1 EPL       0.048367
     28 H6           3.1290     2.7200     1.1530 ha         1 EPL       0.146000
     29 H5           2.2460     4.8350     2.0610 ha         1 EPL       0.146000
     30 H71          0.3070     7.5550     2.6190 h1         1 EPL       0.042033
     31 H72          0.8790     5.9680     3.1540 h1         1 EPL       0.042033
     32 H73          1.7970     6.8780     1.9460 h1         1 EPL       0.042033
     33 H3          -1.0650     4.6120    -0.6380 ha         1 EPL       0.146000
     34 H2          -0.1820     2.4990    -1.5480 ha         1 EPL       0.146000
@<TRIPOS>BOND
     1     1     2 2
     2     2     3 1
     3     2     6 1
     4     2     9 1
     5     3     4 1
     6     4     5 1
     7     4    21 1
     8     4    22 1
     9     5    18 1
    10     5    19 1
    11     5    20 1
    12     6     7 1
    13     7     8 1
    14     7    23 1
    15     7    24 1
    16     8    25 1
    17     8    26 1
    18     8    27 1
    19     9    10 1
    20    10    17 ar
    21    10    11 ar
    22    11    12 ar
    23    11    34 1
    24    12    13 ar
    25    12    33 1
    26    13    16 ar
    27    13    14 1
    28    14    15 1
    29    15    30 1
    30    15    31 1
    31    15    32 1
    32    16    17 ar
    33    16    29 1
    34    17    28 1
@<TRIPOS>SUBSTRUCTURE
     1 EPL         1 TEMP              0 ****  ****    0 ROOT
