@<TRIPOS>MOLECULE
EPM
   66    65     1     0     0
SMALL
bcc


@<TRIPOS>ATOM
      1 C1           0.0000     0.0000     0.0000 c          1 EPM       0.976600
      2 O1          -0.6050     0.9060    -0.5230 o          1 EPM      -0.886300
      3 O2          -0.6700    -1.0080     0.5820 o          1 EPM      -0.886300
      4 C2           1.5070     0.0000     0.0000 c3         1 EPM      -0.100300
      5 C3           2.0170     0.0000     1.4430 c3         1 EPM      -0.007400
      6 C4           3.5420    -0.1250     1.4450 c3         1 EPM       0.082700
      7 S1           4.1460    -0.1250     3.1550 ss         1 EPM      -0.418200
      8 C5           5.9290    -0.2800     2.8600 c3         1 EPM       0.100000
      9 N            1.9940     1.1970    -0.6900 ns         1 EPM      -0.145900
     10 C6           2.1240     1.1950    -2.0310 c          1 EPM       0.568100
     11 O3           1.8350     0.2030    -2.6670 o          1 EPM      -0.662100
     12 C7           2.6260     2.4260    -2.7420 c3         1 EPM      -0.101400
     13 C8           2.6770     2.1600    -4.2470 c3         1 EPM      -0.014400
     14 C9           3.1870     3.4100    -4.9680 c3         1 EPM      -0.034400
     15 C10          3.2380     3.1450    -6.4750 c3         1 EPM      -0.028400
     16 C11          3.7480     4.3940    -7.1960 c3         1 EPM      -0.030400
     17 C12          3.8000     4.1280    -8.7020 c3         1 EPM      -0.029400
     18 C13          4.3100     5.3780    -9.4220 c3         1 EPM      -0.029400
     19 C14          4.3610     5.1120   -10.9280 c3         1 EPM      -0.029400
     20 C15          4.8710     6.3620   -11.6500 c3         1 EPM      -0.029400
     21 C16          4.9220     6.0970   -13.1550 c3         1 EPM      -0.029400
     22 C17          5.4320     7.3460   -13.8760 c3         1 EPM      -0.029400
     23 C18          5.4830     7.0810   -15.3820 c3         1 EPM      -0.029400
     24 C19          5.9930     8.3310   -16.1030 c3         1 EPM      -0.029400
     25 C20          6.0450     8.0650   -17.6090 c3         1 EPM      -0.029400
     26 C21          6.5540     9.3150   -18.3300 c3         1 EPM       0.005900
     27 H2           1.8690    -0.8840    -0.5110 h1         1 EPM       0.056700
     28 H31          1.5850    -0.8370     1.9780 hc         1 EPM       0.043200
     29 H32          1.7290     0.9250     1.9270 hc         1 EPM       0.043200
     30 H41          3.8290    -1.0510     0.9610 h1         1 EPM       0.030200
     31 H42          3.9730     0.7120     0.9090 h1         1 EPM       0.030200
     32 H51          6.2720     0.5630     2.2710 h1         1 EPM       0.023700
     33 H52          6.1280    -1.1990     2.3230 h1         1 EPM       0.023700
     34 H53          6.4520    -0.2950     3.8080 h1         1 EPM       0.023700
     35 HN           2.1850     2.0310    -0.1710 hn         1 EPM       0.153500
     36 H71          1.9570     3.2550    -2.5440 hc         1 EPM       0.017700
     37 H72          3.6180     2.6700    -2.3840 hc         1 EPM       0.017700
     38 H81          3.3460     1.3310    -4.4450 hc         1 EPM       0.030700
     39 H82          1.6840     1.9170    -4.6060 hc         1 EPM       0.030700
     40 H91          2.5190     4.2390    -4.7700 hc         1 EPM       0.008200
     41 H92          4.1800     3.6530    -4.6100 hc         1 EPM       0.008200
     42 H101         2.2450     2.9020    -6.8330 hc         1 EPM       0.016200
     43 H102         3.9060     2.3160    -6.6730 hc         1 EPM       0.016200
     44 H111         3.0790     5.2230    -6.9980 hc         1 EPM       0.012200
     45 H112         4.7410     4.6380    -6.8370 hc         1 EPM       0.012200
     46 H121         2.8070     3.8840    -9.0600 hc         1 EPM       0.014700
     47 H122         4.4690     3.2990    -8.8990 hc         1 EPM       0.014700
     48 H131         3.6420     6.2070    -9.2240 hc         1 EPM       0.013200
     49 H132         5.3030     5.6210    -9.0650 hc         1 EPM       0.013200
     50 H141         3.3670     4.8690   -11.2860 hc         1 EPM       0.014700
     51 H142         5.0290     4.2830   -11.1260 hc         1 EPM       0.014700
     52 H151         4.2020     7.1910   -11.4520 hc         1 EPM       0.014200
     53 H152         5.8640     6.6060   -11.2920 hc         1 EPM       0.014200
     54 H161         3.9290     5.8530   -13.5130 hc         1 EPM       0.014200
     55 H162         5.5910     5.2680   -13.3530 hc         1 EPM       0.014200
     56 H171         6.4250     7.5890   -13.5180 hc         1 EPM       0.014200
     57 H172         4.7640     8.1750   -13.6780 hc         1 EPM       0.014200
     58 H181         4.4900     6.8370   -15.7390 hc         1 EPM       0.014200
     59 H182         6.1510     6.2510   -15.5800 hc         1 EPM       0.014200
     60 H191         6.9860     8.5740   -15.7450 hc         1 EPM       0.014200
     61 H192         5.3240     9.1600   -15.9060 hc         1 EPM       0.014200
     62 H201         5.0520     7.8210   -17.9670 hc         1 EPM       0.011700
     63 H202         6.7140     7.2370   -17.8070 hc         1 EPM       0.011700
     64 H211         5.8840    10.1430   -18.1320 hc         1 EPM      -0.001300
     65 H212         6.5900     9.1270   -19.3960 hc         1 EPM      -0.001300
     66 H213         7.5460     9.5590   -17.9720 hc         1 EPM      -0.001300
@<TRIPOS>BOND
     1     1     2 1   
     2     1     3 1   
     3     1     4 1   
     4     4     5 1   
     5     4     9 1   
     6     4    27 1   
     7     5     6 1   
     8     5    28 1   
     9     5    29 1   
    10     6     7 1   
    11     6    30 1   
    12     6    31 1   
    13     7     8 1   
    14     8    32 1   
    15     8    33 1   
    16     8    34 1   
    17     9    10 1   
    18     9    35 1   
    19    10    11 2   
    20    10    12 1   
    21    12    13 1   
    22    12    36 1   
    23    12    37 1   
    24    13    14 1   
    25    13    38 1   
    26    13    39 1   
    27    14    15 1   
    28    14    40 1   
    29    14    41 1   
    30    15    16 1   
    31    15    42 1   
    32    15    43 1   
    33    16    17 1   
    34    16    44 1   
    35    16    45 1   
    36    17    18 1   
    37    17    46 1   
    38    17    47 1   
    39    18    19 1   
    40    18    48 1   
    41    18    49 1   
    42    19    20 1   
    43    19    50 1   
    44    19    51 1   
    45    20    21 1   
    46    20    52 1   
    47    20    53 1   
    48    21    22 1   
    49    21    54 1   
    50    21    55 1   
    51    22    23 1   
    52    22    56 1   
    53    22    57 1   
    54    23    24 1   
    55    23    58 1   
    56    23    59 1   
    57    24    25 1   
    58    24    60 1   
    59    24    61 1   
    60    25    26 1   
    61    25    62 1   
    62    25    63 1   
    63    26    64 1   
    64    26    65 1   
    65    26    66 1   
@<TRIPOS>SUBSTRUCTURE
     1 EPM         1 TEMP              0 ****  ****    0 ROOT
