@<TRIPOS>MOLECULE
EPN
   25    25     1     0     0
SMALL
bcc


@<TRIPOS>ATOM
      1 C1           0.0000     0.0000     0.0000 c3         1 EPN       0.233400
      2 O17          1.4290     0.0000     0.0000 oh         1 EPN      -0.588800
      3 C2          -0.5090     0.0000     1.4420 c3         1 EPN      -0.050400
      4 C3          -2.0390     0.0000     1.4440 c3         1 EPN       0.176400
      5 O18         -2.5150     0.0000     2.7910 os         1 EPN      -0.263900
      6 C4          -5.9780     0.0000     3.8490 ca         1 EPN       0.067500
      7 C5          -6.6280     0.0000     2.6020 ca         1 EPN      -0.562200
      8 N11         -7.9680     0.0000     2.5400 no         1 EPN       1.104200
      9 O14         -8.5280     0.0000     1.4580 o          1 EPN      -0.488500
     10 O16         -8.6250    -0.0000     3.5650 o          1 EPN      -0.488500
     11 C6          -5.8660     0.0000     1.4180 ca         1 EPN       0.067500
     12 C7          -4.5040     0.0040     1.4890 ca         1 EPN      -0.223500
     13 C8          -3.8680     0.0000     2.7280 ca         1 EPN       0.222100
     14 C9          -4.6150    -0.0000     3.9040 ca         1 EPN      -0.223500
     15 H11         -0.3610    -0.8850    -0.5110 h1         1 EPN      -0.016300
     16 H12         -0.3610     0.8850    -0.5110 h1         1 EPN      -0.016300
     17 H17          1.7430    -0.0000    -0.8890 ho         1 EPN       0.394000
     18 H21         -0.1480    -0.8840     1.9520 hc         1 EPN       0.036700
     19 H22         -0.1480     0.8840     1.9520 hc         1 EPN       0.036700
     20 H31         -2.4000    -0.8840     0.9340 h1         1 EPN       0.014700
     21 H32         -2.4000     0.8840     0.9340 h1         1 EPN       0.014700
     22 H4          -6.5580    -0.0000     4.7640 ha         1 EPN       0.137000
     23 H6          -6.3600     0.0020     0.4540 ha         1 EPN       0.137000
     24 H7          -3.9160     0.0040     0.5790 ha         1 EPN       0.139000
     25 H9          -4.1130    -0.0000     4.8630 ha         1 EPN       0.139000
@<TRIPOS>BOND
     1     1     2 1   
     2     1     3 1   
     3     1    15 1   
     4     1    16 1   
     5     2    17 1   
     6     3     4 1   
     7     3    18 1   
     8     3    19 1   
     9     4     5 1   
    10     4    20 1   
    11     4    21 1   
    12     5    13 1   
    13     6     7 ar  
    14     6    14 ar  
    15     6    22 1   
    16     7     8 1   
    17     7    11 ar  
    18     8     9 1   
    19     8    10 1   
    20    11    12 ar  
    21    11    23 1   
    22    12    13 ar  
    23    12    24 1   
    24    13    14 ar  
    25    14    25 1   
@<TRIPOS>SUBSTRUCTURE
     1 EPN         1 TEMP              0 ****  ****    0 ROOT
