@<TRIPOS>MOLECULE
molecule
   11    11     1     0     0
SMALL
bcc


@<TRIPOS>ATOM
      1 O1           0.0000     0.0000     0.0000 o          1 EPO      -0.865050
      2 C1           1.2080     0.0000     0.0000 c          1 EPO       0.912100
      3 C2           1.9610     0.0000     1.3040 cx         1 EPO      -0.031900
      4 O2           1.5390     0.9150     2.3180 op         1 EPO      -0.432600
      5 C3           2.7650     1.2520     1.6650 cx         1 EPO      -0.031900
      6 C4           4.0450     1.0660     2.4370 c          1 EPO       0.912100
      7 O3           4.1430     1.5040     3.5590 o          1 EPO      -0.865050
      8 O4           1.8790    -0.0040    -1.1630 o          1 EPO      -0.865050
      9 H2           2.3760    -0.9290     1.6750 h1         1 EPO       0.067200
     10 HO2          2.6910     2.0620     0.9490 h1         1 EPO       0.067200
     11 O5           5.0780     0.4170     1.8780 o          1 EPO      -0.865050
@<TRIPOS>BOND
     1     1     2 1
     2     2     3 1
     3     2     8 1
     4     3     4 1
     5     3     5 1
     6     3     9 1
     7     5     6 1
     8     5    10 1
     9     5     4 1
    10     6     7 1
    11     6    11 1
@<TRIPOS>SUBSTRUCTURE
     1 EPO         1 TEMP              0 ****  ****    0 ROOT
