@<TRIPOS>MOLECULE
EPO
   11    10     1     0     0
SMALL
bcc


@<TRIPOS>ATOM
      1 O1         -0.1490   -0.4940    0.5810 o         1 EPO     -0.599000
      2 C1          0.9880   -0.2510    0.0790 c2        1 EPO      0.334000
      3 C2          2.1590    0.0600    1.0260 c3        1 EPO     -0.179000
      4 O2          2.2320    1.5020    1.2350 os        1 EPO     -0.064000
      5 C3          3.1140    2.0460    1.9800 c1        1 EPO     -0.121000
      6 C4          4.1970    1.3460    2.7510 c2        1 EPO      0.273000
      7 O3          3.9720    1.0130    3.9570 o         1 EPO     -0.600000
      8 O4          1.2160   -0.3190   -1.1650 o         1 EPO     -0.599000
      9 H2          3.1280   -0.2710    0.5790 h1        1 EPO      0.078000
     10 HO2         2.0040   -0.4230    2.0210 h1        1 EPO      0.078000
     11 O5          5.3370    1.1990    2.2100 o         1 EPO     -0.600000
@<TRIPOS>BOND
     1    1    2 1   
     2    2    3 1   
     3    2    8 1   
     4    3    4 1   
     5    3    9 1   
     6    3   10 1   
     7    4    5 1   
     8    5    6 1   
     9    6    7 1   
    10    6   11 1   
@<TRIPOS>SUBSTRUCTURE
     1 EPO         1 TEMP              0 ****  ****    0 ROOT
