@<TRIPOS>MOLECULE
EPQ
   29    28     1     0     0
SMALL
bcc


@<TRIPOS>ATOM
      1 NQ           0.0000     0.0000     0.0000 nz         1 EPQ       0.034400
      2 CQA          1.4700     0.0000     0.0000 c3         1 EPQ      -0.089500
      3 CQB          1.9790     0.0000     1.4430 c3         1 EPQ      -0.113400
      4 CC           1.9720    -1.2300    -0.7100 c          1 EPQ       0.548100
      5 CMK          3.4120    -1.3130    -1.1460 c3         1 EPQ       0.162900
      6 OE1          2.6960     0.3560     3.9720 o          1 EPQ      -0.621100
      7 CD           2.0760     1.3080     3.5470 c          1 EPQ       0.576100
      8 CG           1.5740     1.3080     2.1270 c3         1 EPQ      -0.070400
      9 NE2          1.8350     2.3660     4.3470 n          1 EPQ      -0.135800
     10 CH1          2.3220     2.3660     5.7290 c3         1 EPQ       0.085800
     11 CH2          1.0850     3.5150     3.8350 c3         1 EPQ       0.085800
     12 OQ           1.2210    -2.1500    -0.9280 o          1 EPQ      -0.471100
     13 HNQ1        -0.3340     0.9380     0.1000 hn         1 EPQ       0.237467
     14 HNQ2        -0.3340    -0.5560     0.7620 hn         1 EPQ       0.237467
     15 HQA          1.8310     0.8850    -0.5110 hx         1 EPQ       0.078700
     16 HQB1         2.3650     0.7170     0.7290 hc         1 EPQ       0.081200
     17 HQB2         2.8720    -0.5340     1.7450 hc         1 EPQ       0.081200
     18 F1           3.6380    -2.5400    -1.7790 f          1 EPQ      -0.177300
     19 HMK1         4.0570    -1.2290    -0.2800 h1         1 EPQ       0.043700
     20 HMK2         3.6270    -0.5060    -1.8370 h1         1 EPQ       0.043700
     21 HG1          0.4950     1.3980     2.1250 hc         1 EPQ       0.019700
     22 HG2          2.0070     2.1450     1.5910 hc         1 EPQ       0.019700
     23 HH11         1.9200     1.5090     6.2540 h1         1 EPQ       0.017700
     24 HH12         3.4040     2.3150     5.7290 h1         1 EPQ       0.017700
     25 HH13         2.0030     3.2760     6.2240 h1         1 EPQ       0.017700
     26 HH21         1.5850     3.9110     2.9600 h1         1 EPQ       0.017700
     27 HH22         1.0330     4.2820     4.5990 h1         1 EPQ       0.017700
     28 HH23         0.0830     3.2030     3.5680 h1         1 EPQ       0.017700
     29 HQ3         -0.3340    -0.3810    -0.8630 hn         1 EPQ       0.237467
@<TRIPOS>BOND
     1     1     2 1   
     2     1    13 1   
     3     1    14 1   
     4     1    29 1   
     5     2     3 1   
     6     2     4 1   
     7     2    15 1   
     8     3     8 1   
     9     3    16 1   
    10     3    17 1   
    11     4     5 1   
    12     4    12 2   
    13     5    18 1   
    14     5    19 1   
    15     5    20 1   
    16     6     7 2   
    17     7     8 1   
    18     7     9 1   
    19     8    21 1   
    20     8    22 1   
    21     9    10 1   
    22     9    11 1   
    23    10    23 1   
    24    10    24 1   
    25    10    25 1   
    26    11    26 1   
    27    11    27 1   
    28    11    28 1   
@<TRIPOS>SUBSTRUCTURE
     1 EPQ         1 TEMP              0 ****  ****    0 ROOT
