@<TRIPOS>MOLECULE
molecule
   33    34     1     0     0
SMALL
bcc


@<TRIPOS>ATOM
      1 N            0.0000     0.0000     0.0000 n          1 EPR      -0.351400
      2 O            1.9770    -0.0010    -1.0280 o          1 EPR      -0.567500
      3 S           -2.3570     0.0080     1.3760 s          1 EPR      -0.482400
      4 C1           4.2310     0.1320     0.6100 ce         1 EPR      -0.109200
      5 O1          -0.5960    -2.3400    -1.0210 o          1 EPR      -0.825800
      6 S1           0.5650     0.0040     2.4470 ss         1 EPR      -0.184200
      7 O2          -1.6570    -1.6670    -2.8390 o          1 EPR      -0.825800
      8 C9           3.2720    -0.0020     1.6330 ce         1 EPR      -0.015000
      9 C10          1.9420     0.0000     1.3280 cd         1 EPR      -0.091600
     10 C11          1.3220     0.0000     0.0000 c          1 EPR       0.691700
     11 C12         -0.6590     0.0050     1.1640 cs         1 EPR       0.482000
     12 C13         -0.7380    -0.0010    -1.2660 c3         1 EPR      -0.039000
     13 C14         -0.9920    -1.4220    -1.6990 c          1 EPR       0.890600
     14 C8           4.1930     1.2040    -0.2170 cf         1 EPR      -0.066200
     15 C91          5.2970    -0.9170     0.4330 c3         1 EPR      -0.047900
     16 C16          5.0990     1.2750    -1.3720 ca         1 EPR      -0.047800
     17 C17          5.4590     0.1070    -2.0550 ca         1 EPR      -0.111500
     18 C18          6.3100     0.1820    -3.1380 ca         1 EPR      -0.136500
     19 C19          6.8060     1.4070    -3.5500 ca         1 EPR      -0.132000
     20 C20          6.4550     2.5660    -2.8790 ca         1 EPR      -0.136500
     21 C15          5.6020     2.5100    -1.7980 ca         1 EPR      -0.111500
     22 H9           3.5870    -0.0010     2.6690 ha         1 EPR       0.136000
     23 H13         -0.1560     0.5090    -2.0230 h1         1 EPR       0.078200
     24 H13A        -1.6840     0.5100    -1.1320 h1         1 EPR       0.078200
     25 H5           3.4250     1.9570    -0.0890 ha         1 EPR       0.139000
     26 H6           4.9680    -1.6480    -0.2960 hc         1 EPR       0.045033
     27 H7           6.2110    -0.4490     0.0880 hc         1 EPR       0.045033
     28 H8           5.4800    -1.4100     1.3810 hc         1 EPR       0.045033
     29 H91          5.0710    -0.8520    -1.7340 ha         1 EPR       0.141500
     30 H10          6.5890    -0.7200    -3.6680 ha         1 EPR       0.123500
     31 H11          7.4760     1.4580    -4.4000 ha         1 EPR       0.119000
     32 H12          6.8460     3.5200    -3.2090 ha         1 EPR       0.123500
     33 H131         5.3280     3.4180    -1.2750 ha         1 EPR       0.141500
@<TRIPOS>BOND
     1     1    12 1
     2     4     8 1
     3     5    13 1
     4     6     9 1
     5     6    11 1
     6     8     9 2
     7     9    10 1
     8    10     1 1
     9    10     2 2
    10    11     1 1
    11    11     3 2
    12    12    13 1
    13    13     7 1
    14     4    14 2
    15     4    15 1
    16    14    16 1
    17    16    17 ar
    18    16    21 ar
    19    17    18 ar
    20    18    19 ar
    21    19    20 ar
    22    20    21 ar
    23     8    22 1
    24    12    23 1
    25    12    24 1
    26    14    25 1
    27    15    26 1
    28    15    27 1
    29    15    28 1
    30    17    29 1
    31    18    30 1
    32    19    31 1
    33    20    32 1
    34    21    33 1
@<TRIPOS>SUBSTRUCTURE
     1 EPR         1 TEMP              0 ****  ****    0 ROOT
