@<TRIPOS>MOLECULE
EPR
   33    35     1     0     0
SMALL
bcc


@<TRIPOS>ATOM
      1 N            0.0000     0.0000     0.0000 n          1 EPR       0.298000
      2 O            1.9770    -0.0010    -1.0280 o          1 EPR      -0.286000
      3 S           -2.3570     0.0080     1.3760 s          1 EPR      -0.241000
      4 C1           4.2310     0.1320     0.6100 c2         1 EPR       0.045000
      5 O1          -0.5960    -2.3400    -1.0210 o          1 EPR      -0.611500
      6 S1           0.5650     0.0040     2.4470 ss         1 EPR       0.160000
      7 O2          -1.6570    -1.6670    -2.8390 o          1 EPR      -0.611500
      8 C9           3.2720    -0.0020     1.6330 c2         1 EPR       0.006000
      9 C10          1.9420     0.0000     1.3280 c2         1 EPR      -0.251000
     10 C11          1.3220     0.0000     0.0000 c2         1 EPR       0.224000
     11 C12         -0.6590     0.0050     1.1640 c2         1 EPR      -0.173000
     12 C13         -0.7380    -0.0010    -1.2660 c3         1 EPR      -0.210000
     13 C14         -0.9920    -1.4220    -1.6990 c2         1 EPR       0.404000
     14 C8           4.1930     1.2040    -0.2170 c2         1 EPR      -0.344000
     15 C91          5.2970    -0.9170     0.4330 c3         1 EPR      -0.135000
     16 C16          5.0990     1.2750    -1.3720 c3         1 EPR      -0.096000
     17 C17          5.4590     0.1070    -2.0550 c2         1 EPR      -0.088000
     18 C18          6.3100     0.1820    -3.1380 c2         1 EPR      -0.114000
     19 C19          6.8060     1.4070    -3.5500 c2         1 EPR      -0.093000
     20 C20          6.4550     2.5660    -2.8790 c2         1 EPR      -0.114000
     21 C15          5.6020     2.5100    -1.7980 c2         1 EPR      -0.088000
     22 H9           3.5870    -0.0010     2.6690 ha         1 EPR       0.110000
     23 H13         -1.6840     0.5100    -1.1320 h1         1 EPR       0.102000
     24 H13A        -0.1560     0.5090    -2.0230 h1         1 EPR       0.102000
     25 H5           5.2120     1.5590    -0.1140 DU         1 EPR       0.269000
     26 H6           4.9710    -1.6430    -0.3020 hc         1 EPR       0.063333
     27 H7           6.2140    -0.4480     0.0960 hc         1 EPR       0.063333
     28 H8           5.4740    -1.4160     1.3790 hc         1 EPR       0.063333
     29 H91          5.0710    -0.8520    -1.7340 ha         1 EPR       0.125500
     30 H10          6.5890    -0.7200    -3.6680 ha         1 EPR       0.100000
     31 H11          7.4760     1.4580    -4.4000 ha         1 EPR       0.096000
     32 H12          6.8460     3.5200    -3.2090 ha         1 EPR       0.100000
     33 H131         5.3280     3.4180    -1.2750 ha         1 EPR       0.125500
@<TRIPOS>BOND
     1     1    10 1   
     2     1    11 1   
     3     1    12 1   
     4     2    10 1   
     5     3    11 1   
     6     4     8 1   
     7     4    14 1   
     8     4    15 1   
     9     5    13 1   
    10     6     9 1   
    11     6    11 1   
    12     7    13 1   
    13     8     9 1   
    14     8    22 1   
    15     9    10 1   
    16    12    13 1   
    17    12    23 1   
    18    12    24 1   
    19    14    16 1   
    20    14    25 1   
    21    15    26 1   
    22    15    27 1   
    23    15    28 1   
    24    16    17 1   
    25    16    21 1   
    26    16    25 1   
    27    17    18 1   
    28    17    29 1   
    29    18    19 1   
    30    18    30 1   
    31    19    20 1   
    32    19    31 1   
    33    20    21 1   
    34    20    32 1   
    35    21    33 1   
@<TRIPOS>SUBSTRUCTURE
     1 EPR         1 TEMP              0 ****  ****    0 ROOT
