@<TRIPOS>MOLECULE
molecule
   30    30     1     0     0
SMALL
bcc


@<TRIPOS>ATOM
      1 C1           0.0000     0.0000     0.0000 ce         1 EPS      -0.221400
      2 C2           1.3160     0.0000     0.0000 c2         1 EPS      -0.121200
      3 C3           2.1530     0.0000     1.2470 c3         1 EPS       0.198300
      4 C4           1.3030    -0.4160     2.4490 c3         1 EPS       0.150100
      5 C5           0.0150     0.4150     2.4490 c3         1 EPS       0.119100
      6 C6          -0.8340    -0.0040     1.2480 c3         1 EPS      -0.034200
      7 O3           2.6670     1.3120     1.4710 os         1 EPS      -0.495200
      8 P            4.2730     1.1930     1.4550 p5         1 EPS       1.198900
      9 O1P          4.7150     0.6730     0.1430 o          1 EPS      -0.936167
     10 O2P          4.9210     2.6450     1.7040 o          1 EPS      -0.936167
     11 O3P          4.7480     0.1870     2.6190 o          1 EPS      -0.936167
     12 O4           2.0300    -0.1740     3.6560 oh         1 EPS      -0.514800
     13 O5          -0.7090     0.1770     3.6580 os         1 EPS      -0.367900
     14 C7          -1.4080     1.3130     3.9280 ce         1 EPS       0.066900
     15 C8          -2.7390     1.3080     3.8560 c2         1 EPS      -0.342000
     16 C9          -0.6930     2.5460     4.2990 c          1 EPS       0.849800
     17 O91         -1.3860     3.6710     4.5660 o          1 EPS      -0.830800
     18 O92          0.5200     2.5490     4.3650 o          1 EPS      -0.830800
     19 C10         -0.6920     0.0040    -1.2950 c          1 EPS       0.897800
     20 O11         -0.0510     0.0070    -2.3270 o          1 EPS      -0.899800
     21 O12         -2.0400     0.0040    -1.3400 o          1 EPS      -0.899800
     22 H2           1.8250    -0.0000    -0.9560 ha         1 EPS       0.143000
     23 H3           2.9730    -0.6980     1.1290 h1         1 EPS       0.061700
     24 H4           1.0560    -1.4670     2.3710 h1         1 EPS      -0.025300
     25 H5           0.2620     1.4660     2.3680 h1         1 EPS       0.125700
     26 H61         -1.2220    -1.0020     1.4150 hc         1 EPS       0.029700
     27 H62         -1.6560     0.6910     1.1300 hc         1 EPS       0.029700
     28 HO4          2.1290    -0.9830     4.1300 ho         1 EPS       0.343000
     29 H81         -3.2960     2.2120     4.0710 ha         1 EPS       0.088500
     30 H82         -3.2640     0.4010     3.5830 ha         1 EPS       0.088500
@<TRIPOS>BOND
     1     1     2 2
     2     1     6 1
     3     1    19 1
     4     2     3 1
     5     2    22 1
     6     3     4 1
     7     3     7 1
     8     3    23 1
     9     4     5 1
    10     4    12 1
    11     4    24 1
    12     5     6 1
    13     5    13 1
    14     5    25 1
    15     6    26 1
    16     6    27 1
    17     7     8 1
    18     8     9 1
    19     8    10 1
    20     8    11 1
    21    12    28 1
    22    13    14 1
    23    14    15 2
    24    14    16 1
    25    15    29 1
    26    15    30 1
    27    16    17 1
    28    16    18 1
    29    19    20 1
    30    19    21 1
@<TRIPOS>SUBSTRUCTURE
     1 EPS         1 TEMP              0 ****  ****    0 ROOT
