@<TRIPOS>MOLECULE
EPS
   30    30     1     0     0
SMALL
bcc


@<TRIPOS>ATOM
      1 C1         -0.0840   -0.1340    0.1110 ce        1 EPS     -0.230400
      2 C2          1.2470   -0.0180   -0.0160 c2        1 EPS     -0.120200
      3 C3          2.2240    0.0550    1.1250 c3        1 EPS      0.206300
      4 C4          1.5590    0.4600    2.4860 c3        1 EPS      0.142100
      5 C5          0.0730    0.8650    2.3820 c3        1 EPS      0.131100
      6 C6         -0.7060   -0.0710    1.4610 c3        1 EPS     -0.037200
      7 O3          3.2750    0.8960    0.8140 os        1 EPS     -0.571200
      8 P           4.8850    0.3200    1.0560 p5        1 EPS      1.317900
      9 O1P         4.8080   -1.1780    0.9010 o         1 EPS     -0.938167
     10 O2P         5.6990    1.0260    0.0010 o         1 EPS     -0.938167
     11 O3P         5.1000    0.8090    2.4690 o         1 EPS     -0.938167
     12 O4          2.2400    1.5290    3.1120 oh        1 EPS     -0.657800
     13 O5         -0.4680    0.7670    3.7290 os        1 EPS     -0.316900
     14 C7         -1.5960    1.4860    4.0170 ce        1 EPS      0.089900
     15 C8         -2.2850    2.2680    3.1650 c2        1 EPS     -0.424000
     16 C9         -2.0760    1.3230    5.4610 c         1 EPS      0.922800
     17 O91        -2.1370    2.3590    6.1930 o         1 EPS     -0.864800
     18 O92        -2.4790    0.1950    5.8680 o         1 EPS     -0.864800
     19 C10        -1.0060   -0.3610   -1.0580 c         1 EPS      0.907800
     20 O11        -0.6400   -0.0630   -2.2410 o         1 EPS     -0.895300
     21 O12        -2.1620   -0.8650   -0.8640 o         1 EPS     -0.895300
     22 H2          1.7150   -0.0080   -1.0140 ha        1 EPS      0.127000
     23 H3          2.6320   -0.9990    1.2690 h1        1 EPS      0.054700
     24 H4          1.6160   -0.4340    3.1750 h1        1 EPS      0.007700
     25 H5          0.0100    1.9280    2.0310 h1        1 EPS      0.051700
     26 H61        -1.7690    0.2750    1.3800 hc        1 EPS      0.039700
     27 H62        -0.7300   -1.0970    1.9170 hc        1 EPS      0.039700
     28 HO4         3.1820    1.4770    2.8220 ho        1 EPS      0.471000
     29 H81        -2.0320    2.3960    2.1100 ha        1 EPS      0.093000
     30 H82        -3.1610    2.8190    3.5190 ha        1 EPS      0.093000
@<TRIPOS>BOND
     1    1    2 2   
     2    1    6 1   
     3    1   19 1   
     4    2    3 1   
     5    2   22 1   
     6    3    4 1   
     7    3    7 1   
     8    3   23 1   
     9    4    5 1   
    10    4   12 1   
    11    4   24 1   
    12    5    6 1   
    13    5   13 1   
    14    5   25 1   
    15    6   26 1   
    16    6   27 1   
    17    7    8 1   
    18    8    9 1   
    19    8   10 1   
    20    8   11 1   
    21   12   28 1   
    22   13   14 1   
    23   14   15 2   
    24   14   16 1   
    25   15   29 1   
    26   15   30 1   
    27   16   17 1   
    28   16   18 1   
    29   19   20 1   
    30   19   21 1   
@<TRIPOS>SUBSTRUCTURE
     1 EPS         1 TEMP              0 ****  ****    0 ROOT
