@<TRIPOS>MOLECULE
molecule
   34    34     1     0     0
SMALL
bcc


@<TRIPOS>ATOM
      1 C1           0.0000     0.0000     0.0000 ca         1 EPT      -0.089300
      2 C2           1.3830     0.0000     0.0000 ca         1 EPT      -0.114000
      3 C3           2.0740     0.0000     1.1960 ca         1 EPT      -0.150000
      4 C4           1.3820     0.0000     2.3960 ca         1 EPT       0.099100
      5 C5          -0.0060     0.0000     2.3940 ca         1 EPT      -0.150000
      6 C6          -0.6920     0.0050     1.1960 ca         1 EPT      -0.114000
      7 C7          -0.7520    -0.0000    -1.3050 c3         1 EPT      -0.036100
      8 C8          -1.0070    -1.4420    -1.7470 c3         1 EPT      -0.078400
      9 C9          -1.7710    -1.4420    -3.0720 c3         1 EPT      -0.083400
     10 C10         -2.0240    -2.8840    -3.5150 c3         1 EPT      -0.081400
     11 C11         -2.7880    -2.8850    -4.8400 c3         1 EPT      -0.081400
     12 C12         -3.0430    -4.3260    -5.2830 c3         1 EPT      -0.084400
     13 C13         -3.8060    -4.3250    -6.6090 c3         1 EPT      -0.092100
     14 O4           2.0610    -0.0000     3.5750 oh         1 EPT      -0.523100
     15 H2           1.9240    -0.0020    -0.9380 ha         1 EPT       0.133000
     16 H3           3.1570    -0.0000     1.1960 ha         1 EPT       0.139000
     17 H5          -0.5500     0.0030     3.3310 ha         1 EPT       0.139000
     18 H6          -1.7760     0.0050     1.1940 ha         1 EPT       0.133000
     19 H71         -0.1670     0.5110    -2.0600 hc         1 EPT       0.049200
     20 H72         -1.6990     0.5100    -1.1760 hc         1 EPT       0.049200
     21 H81         -0.0600    -1.9530    -1.8760 hc         1 EPT       0.044700
     22 H82         -1.5920    -1.9530    -0.9920 hc         1 EPT       0.044700
     23 H91         -2.7180    -0.9320    -2.9430 hc         1 EPT       0.041700
     24 H92         -1.1850    -0.9300    -3.8260 hc         1 EPT       0.041700
     25 H101        -2.6100    -3.3960    -2.7610 hc         1 EPT       0.041700
     26 H102        -1.0770    -3.3940    -3.6440 hc         1 EPT       0.041700
     27 H111        -2.2030    -2.3730    -5.5940 hc         1 EPT       0.040700
     28 H112        -3.7350    -2.3740    -4.7110 hc         1 EPT       0.040700
     29 H121        -3.6290    -4.8370    -4.5290 hc         1 EPT       0.039700
     30 H122        -2.0960    -4.8370    -5.4120 hc         1 EPT       0.039700
     31 H131        -3.2200    -3.8140    -7.3630 hc         1 EPT       0.032700
     32 H132        -3.9870    -5.3470    -6.9220 hc         1 EPT       0.032700
     33 H133        -4.7530    -3.8150    -6.4800 hc         1 EPT       0.032700
     34 HO4          2.2170    -0.8890     3.8470 ho         1 EPT       0.417000
@<TRIPOS>BOND
     1     1     2 ar
     2     1     6 ar
     3     1     7 1
     4     2     3 ar
     5     2    15 1
     6     3     4 ar
     7     3    16 1
     8     4     5 ar
     9     4    14 1
    10     5     6 ar
    11     5    17 1
    12     6    18 1
    13     7     8 1
    14     7    19 1
    15     7    20 1
    16     8     9 1
    17     8    21 1
    18     8    22 1
    19     9    10 1
    20     9    23 1
    21     9    24 1
    22    10    11 1
    23    10    25 1
    24    10    26 1
    25    11    12 1
    26    11    27 1
    27    11    28 1
    28    12    13 1
    29    12    29 1
    30    12    30 1
    31    13    31 1
    32    13    32 1
    33    13    33 1
    34    14    34 1
@<TRIPOS>SUBSTRUCTURE
     1 EPT         1 TEMP              0 ****  ****    0 ROOT
