@<TRIPOS>MOLECULE
EPT
   34    34     1     0     0
SMALL
bcc


@<TRIPOS>ATOM
      1 C1          0.1120   -0.0680   -0.0430 ca        1 EPT     -0.112300
      2 C2          1.4890    0.1820    0.0120 ca        1 EPT     -0.092000
      3 C3          2.1630    0.2030    1.2280 ca        1 EPT     -0.183000
      4 C4          1.4440   -0.0320    2.4100 ca        1 EPT      0.120100
      5 C5          0.0650   -0.2830    2.3730 ca        1 EPT     -0.183000
      6 C6         -0.5900   -0.2990    1.1450 ca        1 EPT     -0.092000
      7 C7         -0.6030   -0.0800   -1.3490 c3        1 EPT     -0.032100
      8 C8         -0.9580   -1.4900   -1.7830 c3        1 EPT     -0.076400
      9 C9         -1.7120   -1.4820   -3.0950 c3        1 EPT     -0.079400
     10 C10        -2.0640   -2.8870   -3.5340 c3        1 EPT     -0.079400
     11 C11        -2.8210   -2.8800   -4.8450 c3        1 EPT     -0.079400
     12 C12        -3.1720   -4.2850   -5.2850 c3        1 EPT     -0.080400
     13 C13        -3.9260   -4.2840   -6.5900 c3        1 EPT     -0.092100
     14 O4          2.1620    0.0020    3.5840 oh        1 EPT     -0.499100
     15 H2          2.0480    0.3660   -0.9190 ha        1 EPT      0.133500
     16 H3          3.2430    0.3990    1.2790 ha        1 EPT      0.140500
     17 H5         -0.4910   -0.4650    3.3030 ha        1 EPT      0.140500
     18 H6         -1.6720   -0.4950    1.1070 ha        1 EPT      0.133500
     19 H71         0.0320    0.4030   -2.1390 hc        1 EPT      0.046200
     20 H72        -1.5430    0.5290   -1.2630 hc        1 EPT      0.046200
     21 H81        -1.5820   -1.9800   -0.9900 hc        1 EPT      0.043700
     22 H82        -0.0210   -2.0980   -1.8900 hc        1 EPT      0.043700
     23 H91        -1.0880   -0.9870   -3.8850 hc        1 EPT      0.039200
     24 H92        -2.6500   -0.8750   -2.9870 hc        1 EPT      0.039200
     25 H101       -1.1260   -3.4930   -3.6430 hc        1 EPT      0.040200
     26 H102       -2.6870   -3.3830   -2.7430 hc        1 EPT      0.040200
     27 H111       -2.1990   -2.3840   -5.6350 hc        1 EPT      0.039700
     28 H112       -3.7590   -2.2760   -4.7350 hc        1 EPT      0.039700
     29 H121       -2.2320   -4.8890   -5.3940 hc        1 EPT      0.038700
     30 H122       -3.7930   -4.7810   -4.4920 hc        1 EPT      0.038700
     31 H131       -3.3140   -3.8150   -7.3980 hc        1 EPT      0.032700
     32 H132       -4.1750   -5.3280   -6.8960 hc        1 EPT      0.032700
     33 H133       -4.8780   -3.7080   -6.4950 hc        1 EPT      0.032700
     34 HO4         1.5490   -0.1740    4.3130 ho        1 EPT      0.418000
@<TRIPOS>BOND
     1    1    2 ar  
     2    1    6 ar  
     3    1    7 1   
     4    2    3 ar  
     5    2   15 1   
     6    3    4 ar  
     7    3   16 1   
     8    4    5 ar  
     9    4   14 1   
    10    5    6 ar  
    11    5   17 1   
    12    6   18 1   
    13    7    8 1   
    14    7   19 1   
    15    7   20 1   
    16    8    9 1   
    17    8   21 1   
    18    8   22 1   
    19    9   10 1   
    20    9   23 1   
    21    9   24 1   
    22   10   11 1   
    23   10   25 1   
    24   10   26 1   
    25   11   12 1   
    26   11   27 1   
    27   11   28 1   
    28   12   13 1   
    29   12   29 1   
    30   12   30 1   
    31   13   31 1   
    32   13   32 1   
    33   13   33 1   
    34   14   34 1   
@<TRIPOS>SUBSTRUCTURE
     1 EPT         1 TEMP              0 ****  ****    0 ROOT
