@<TRIPOS>MOLECULE
molecule
   61    64     1     0     0
SMALL
bcc


@<TRIPOS>ATOM
      1 C4           0.0000     0.0000     0.0000 ca         1 EPV      -0.068000
      2 C5           1.3940     0.0000     0.0000 ca         1 EPV      -0.129600
      3 C6           2.0960     0.0000     1.2120 ca         1 EPV      -0.111000
      4 C8          -1.9450     0.0010     3.6390 cc         1 EPV       0.518600
      5 C17         -3.0480     0.0010     0.2910 cc         1 EPV       0.377400
      6 C20         -2.6890    -1.1940    -3.2540 ca         1 EPV       0.150100
      7 C21         -2.4930     0.0070    -3.9230 ca         1 EPV      -0.200000
      8 C22         -2.4790     1.2000    -3.2250 ca         1 EPV      -0.084000
      9 C26          5.7150     0.0020    -2.2720 c3         1 EPV      -0.096700
     10 C28          6.1060    -1.3060    -1.5800 c3         1 EPV      -0.088100
     11 C1           1.4270    -0.0000     2.3990 ca         1 EPV      -0.154300
     12 C19         -2.8700    -1.2010    -1.8820 ca         1 EPV      -0.122000
     13 C18         -2.8560     0.0010    -1.1740 ca         1 EPV      -0.072900
     14 C2           0.0260     0.0000     2.4190 ca         1 EPV       0.414600
     15 C3          -0.6870     0.0000     1.2030 ca         1 EPV      -0.097600
     16 C23         -2.6580     1.2040    -1.8550 ca         1 EPV       0.012400
     17 C9          -2.7110     0.0000     2.4520 cc         1 EPV      -0.204600
     18 C11          2.1310     0.0010    -1.2790 c          1 EPV       0.672700
     19 C12         -2.6430     0.0010     4.9740 c3         1 EPV      -0.139400
     20 C27          6.4770     0.1270    -3.5910 c3         1 EPV      -0.088100
     21 C31         -3.4520    -1.4530    -6.0600 c3         1 EPV      -0.109433
     22 C32         -2.3830    -3.7080    -5.9290 c3         1 EPV      -0.109433
     23 C33         -1.0200    -1.6530    -5.5240 c3         1 EPV      -0.109433
     24 C30         -2.3960    -2.2960    -5.3410 c3         1 EPV       0.144800
     25 N16         -4.2060     0.0020     0.9300 nd         1 EPV      -0.330700
     26 N15         -4.0070     0.0000     2.2010 nd         1 EPV      -0.057000
     27 N7          -0.6390     0.0000     3.5930 nd         1 EPV      -0.687000
     28 N10         -2.0690     0.0000     1.2340 na         1 EPV      -0.048200
     29 N13          3.4790     0.0010    -1.2800 ns         1 EPV      -0.580900
     30 O14          1.5220     0.0010    -2.3320 o          1 EPV      -0.608100
     31 Cl4         -2.6380     2.7050    -0.9820 cl         1 EPV      -0.095400
     32 H1          -0.5440    -0.0000    -0.9370 ha         1 EPV       0.178000
     33 H2           3.1800     0.0000     1.2050 ha         1 EPV       0.133000
     34 H3          -2.3520     0.0090    -4.9970 ha         1 EPV       0.163000
     35 H4          -2.3260     2.1330    -3.7530 ha         1 EPV       0.150000
     36 H5           5.9630     0.8380    -1.6290 hc         1 EPV       0.052700
     37 H6           5.9470    -1.2110    -0.5120 hc         1 EPV       0.038033
     38 H7           7.1510    -1.5180    -1.7720 hc         1 EPV       0.038033
     39 H8           5.4960    -2.1150    -1.9650 hc         1 EPV       0.038033
     40 H9           1.9800    -0.0000     3.3300 ha         1 EPV       0.158000
     41 H10         -3.0230    -2.1380    -1.3590 ha         1 EPV       0.160000
     42 H11         -1.9050    -0.0260     5.7670 hc         1 EPV       0.067033
     43 H12         -3.2830    -0.8700     5.0480 hc         1 EPV       0.067033
     44 H13         -3.2420     0.8990     5.0690 hc         1 EPV       0.067033
     45 H14          7.5420     0.1610    -3.3920 hc         1 EPV       0.038033
     46 H15          6.2550    -0.7270    -4.2200 hc         1 EPV       0.038033
     47 H16          6.1760     1.0360    -4.0970 hc         1 EPV       0.038033
     48 H17         -4.1940    -1.1180    -5.3460 hc         1 EPV       0.050144
     49 H18         -2.9780    -0.5940    -6.5180 hc         1 EPV       0.050144
     50 H19         -3.9310    -2.0520    -6.8250 hc         1 EPV       0.050144
     51 H20         -3.3490    -4.1720    -5.7750 hc         1 EPV       0.050144
     52 H21         -2.1720    -3.6560    -6.9900 hc         1 EPV       0.050144
     53 H22         -1.6180    -4.2960    -5.4370 hc         1 EPV       0.050144
     54 H23         -0.4180    -2.2710    -6.1800 hc         1 EPV       0.050144
     55 H24         -0.5310    -1.5650    -4.5610 hc         1 EPV       0.050144
     56 H25         -1.1360    -0.6690    -5.9620 hc         1 EPV       0.050144
     57 H26          3.9480    -0.8830    -3.1180 h1         1 EPV       0.055200
     58 H27          3.9480     0.8860    -3.1180 h1         1 EPV       0.055200
     59 H28          3.9800     0.0430    -0.4140 hn         1 EPV       0.316500
     60 O29         -2.7080    -2.3630    -3.9480 os         1 EPV      -0.320900
     61 C25          4.2100     0.0020    -2.5500 c3         1 EPV       0.117000
@<TRIPOS>BOND
     1    23    24 1
     2    24    21 1
     3    24    22 1
     4    24    60 1
     5     7     8 ar
     6     7     6 ar
     7     8    16 ar
     8    60     6 1
     9     6    12 ar
    10    16    31 1
    11    16    13 ar
    12    20     9 1
    13    12    13 ar
    14    30    18 2
    15    13     5 1
    16     9    61 1
    17     9    10 1
    18    61    29 1
    19    18    29 1
    20    18     2 1
    21     5    25 2
    22     5    28 1
    23     1     2 ar
    24     1    15 ar
    25    25    26 1
    26     2     3 ar
    27    28    15 1
    28    28    17 1
    29    15    14 ar
    30    26    17 2
    31     3    11 ar
    32    17     4 1
    33    14    11 ar
    34    14    27 1
    35     4    27 2
    36     4    19 1
    37     1    32 1
    38     3    33 1
    39     7    34 1
    40     8    35 1
    41     9    36 1
    42    10    37 1
    43    10    38 1
    44    10    39 1
    45    11    40 1
    46    12    41 1
    47    19    42 1
    48    19    43 1
    49    19    44 1
    50    20    45 1
    51    20    46 1
    52    20    47 1
    53    21    48 1
    54    21    49 1
    55    21    50 1
    56    22    51 1
    57    22    52 1
    58    22    53 1
    59    23    54 1
    60    23    55 1
    61    23    56 1
    62    61    57 1
    63    61    58 1
    64    29    59 1
@<TRIPOS>SUBSTRUCTURE
     1 EPV         1 TEMP              0 ****  ****    0 ROOT
