@<TRIPOS>MOLECULE
molecule
   54    53     1     0     0
SMALL
bcc


@<TRIPOS>ATOM
      1 C4           1.5070     0.0000     0.0000 c3         1 EPW      -0.169700
      2 C5           2.0170     0.0000     1.4430 c3         1 EPW      -0.048700
      3 C6           3.5430    -0.1020     1.4440 c3         1 EPW      -0.082600
      4 C7           1.5920     1.2980     2.1330 c3         1 EPW      -0.082600
      5 C15          0.5160     1.0580    -4.4930 c3         1 EPW      -0.082700
      6 C17          1.3960     2.2610    -4.1450 c3         1 EPW      -0.093100
      7 C21          3.2220    -0.2120    -7.6710 c3         1 EPW       0.010700
      8 C22          2.6890    -0.7630    -8.9950 c3         1 EPW      -0.064700
      9 C24          1.6350     0.1920    -9.5580 c3         1 EPW      -0.076600
     10 C1           0.0000     0.0000     0.0000 c          1 EPW       0.890600
     11 O3          -0.6040    -0.9060    -0.5220 o          1 EPW      -0.835800
     12 C9           2.0160    -1.2500    -0.7210 c3         1 EPW       0.100100
     13 O10          1.5430    -2.4160    -0.0430 oh         1 EPW      -0.543800
     14 C11          1.5110    -1.2530    -2.1400 c          1 EPW       0.661100
     15 O12          0.7500    -2.1210    -2.5100 o          1 EPW      -0.596100
     16 N13          1.9040    -0.2900    -2.9970 ns         1 EPW      -0.565900
     17 C14          1.3290    -0.2290    -4.3440 c3         1 EPW       0.043700
     18 C18          2.4380    -0.2450    -5.3640 c          1 EPW       0.652100
     19 O19          3.5940    -0.3010    -5.0030 o          1 EPW      -0.632100
     20 N20          2.1450    -0.1960    -6.6780 ns         1 EPW      -0.553900
     21 C25          3.7320     1.1920    -7.8800 c          1 EPW       0.889600
     22 O26          3.2450     2.1100    -7.2640 o          1 EPW      -0.848800
     23 O27          4.7270     1.4210    -8.7510 o          1 EPW      -0.848800
     24 H1           1.8680     0.8840    -0.5110 hc         1 EPW       0.050700
     25 H2           1.5980    -0.8460     1.9740 hc         1 EPW       0.055700
     26 H3           3.9630     0.7620     0.9430 hc         1 EPW       0.022700
     27 H4           3.9020    -0.1370     2.4660 hc         1 EPW       0.022700
     28 H5           3.8450    -1.0030     0.9250 hc         1 EPW       0.022700
     29 H6           2.2920     1.5310     2.9260 hc         1 EPW       0.022700
     30 H7           0.6000     1.1760     2.5510 hc         1 EPW       0.022700
     31 H8           1.5840     2.1050     1.4100 hc         1 EPW       0.022700
     32 H9           0.1750     1.1450    -5.5180 hc         1 EPW       0.042700
     33 H10          0.9460     3.1640    -4.5390 hc         1 EPW       0.041867
     34 H11          2.3780     2.1270    -4.5800 hc         1 EPW       0.041867
     35 H12          1.4860     2.3420    -3.0680 hc         1 EPW       0.041867
     36 H13          4.0300    -0.8400    -7.3170 h1         1 EPW       0.069700
     37 H14          2.2430    -1.7360    -8.8270 hc         1 EPW       0.013700
     38 H15          2.0640     1.1810    -9.6650 hc         1 EPW       0.029533
     39 H16          1.3030    -0.1650   -10.5250 hc         1 EPW       0.029533
     40 H17          0.7900     0.2370    -8.8810 hc         1 EPW       0.029533
     41 H19          3.1000    -1.2490    -0.7230 h1         1 EPW       0.011700
     42 H20          2.2360    -3.0530     0.0080 ho         1 EPW       0.362000
     43 H21          2.5840     0.3870    -2.7120 hn         1 EPW       0.320500
     44 H22          0.6830    -1.0850    -4.5000 h1         1 EPW       0.092700
     45 H23         -1.0360    -0.0070    -3.4560 hc         1 EPW       0.041867
     46 H24         -0.3950     1.3860    -2.5740 hc         1 EPW       0.041867
     47 H25         -1.4820     1.6320    -3.9470 hc         1 EPW       0.041867
     48 H26          1.1900    -0.1940    -6.9770 hn         1 EPW       0.297500
     49 H28          3.6330    -1.7050   -10.6810 hc         1 EPW       0.029533
     50 H29          4.7600    -1.1050    -9.4580 hc         1 EPW       0.029533
     51 H30          3.9490     0.0300   -10.5450 hc         1 EPW       0.029533
     52 OXT         -0.6710     1.0080     0.5810 o          1 EPW      -0.835800
     53 C23          3.8420    -0.8950    -9.9930 c3         1 EPW      -0.076600
     54 C16         -0.6870     1.0140    -3.5490 c3         1 EPW      -0.093100
@<TRIPOS>BOND
     1    11    10 1
     2    10     1 1
     3    13    12 1
     4     3     2 1
     5     1    12 1
     6     1     2 1
     7    12    14 1
     8     2     4 1
     9    14    15 2
    10    14    16 1
    11    16    17 1
    12     6     5 1
    13    17     5 1
    14    17    18 1
    15     5    54 1
    16    19    18 2
    17    18    20 1
    18     9     8 1
    19    20     7 1
    20     7     8 1
    21     7    21 1
    22     8    53 1
    23    22    21 1
    24    21    23 1
    25     1    24 1
    26     2    25 1
    27     3    26 1
    28     3    27 1
    29     3    28 1
    30     4    29 1
    31     4    30 1
    32     4    31 1
    33     5    32 1
    34     6    33 1
    35     6    34 1
    36     6    35 1
    37     7    36 1
    38     8    37 1
    39     9    38 1
    40     9    39 1
    41     9    40 1
    42    12    41 1
    43    13    42 1
    44    16    43 1
    45    17    44 1
    46    54    45 1
    47    54    46 1
    48    54    47 1
    49    20    48 1
    50    53    49 1
    51    53    50 1
    52    53    51 1
    53    10    52 1
@<TRIPOS>SUBSTRUCTURE
     1 EPW         1 TEMP              0 ****  ****    0 ROOT
