@<TRIPOS>MOLECULE
molecule
   59    59     1     0     0
SMALL
bcc


@<TRIPOS>ATOM
      1 S            0.0000     0.0000     0.0000 ss         1 EPY      -0.317200
      2 C2A         -1.8250     1.8470     0.8610 c3         1 EPY       0.100700
      3 C3A         -2.0870     3.1910     1.4890 c          1 EPY       0.630100
      4 N4A         -1.6290     3.4580     2.7280 ns         1 EPY      -0.543900
      5 C1A         -0.3160     1.6190     0.7550 c3         1 EPY      -0.146300
      6 C5A         -1.8840     4.7650     3.3380 c3         1 EPY      -0.006000
      7 C6A         -1.2720     4.8060     4.7150 c          1 EPY       0.884600
      8 O6A         -1.3800     5.9120     5.4650 o          1 EPY      -0.841800
      9 O3A         -2.7090     4.0350     0.8780 o          1 EPY      -0.626100
     10 O7A         -0.6840     3.8410     5.1420 o          1 EPY      -0.841800
     11 C6B         -7.8430     0.4970    -3.1980 c          1 EPY       0.873600
     12 O7B         -8.0770    -0.8200    -3.0920 o          1 EPY      -0.776800
     13 C5B         -6.4260     1.0040    -3.2930 c3         1 EPY      -0.041500
     14 N5B         -6.4280     2.3560    -3.8670 nz         1 EPY      -0.861600
     15 C4B         -5.8060     1.0460    -1.8960 c3         1 EPY      -0.075400
     16 C3B         -4.3310     1.4410    -2.0040 c3         1 EPY      -0.180400
     17 O2B         -4.3950     1.2190     0.3440 o          1 EPY      -0.587100
     18 N1B         -2.4200     1.8080    -0.4770 ns         1 EPY      -0.559900
     19 C1C          1.8140     0.0000     0.0000 c3         1 EPY      -0.000600
     20 C3C          2.3230     0.0000     1.4430 c3         1 EPY       0.118400
     21 O2C          1.9450    -1.2220     2.0810 oh         1 EPY      -0.564800
     22 C2C          2.3230    -1.2500    -0.7210 c3         1 EPY       0.127400
     23 O3C          3.7480    -1.3090    -0.6200 os         1 EPY      -0.286900
     24 C4C          4.1410    -2.4330    -1.2750 ca         1 EPY       0.172100
     25 C9C          5.4880    -2.7610    -1.3470 ca         1 EPY      -0.202000
     26 C8C          5.8840    -3.9040    -2.0130 ca         1 EPY      -0.033000
     27 C7C          4.9410    -4.7210    -2.6090 ca         1 EPY      -0.201200
     28 C6C          3.5990    -4.3970    -2.5390 ca         1 EPY      -0.033000
     29 C5C          3.1970    -3.2580    -1.8690 ca         1 EPY      -0.202000
     30 N8C          5.3700    -5.9450    -3.3230 no         1 EPY       0.300200
     31 O8C          6.5520    -6.2310    -3.3850 o          1 EPY      -0.215000
     32 O9C          4.5400    -6.6650    -3.8480 o          1 EPY      -0.215000
     33 H3A1        -2.2650     1.0700     1.4750 h1         1 EPY       0.088700
     34 HNA4        -1.1230     2.7590     3.2360 hn         1 EPY       0.329500
     35 H1A1        -0.8830     1.0220     1.4600 h1         1 EPY       0.128200
     36 H1A2         0.4130     2.1160     1.3840 h1         1 EPY       0.128200
     37 H5A1        -1.4440     5.5420     2.7250 h1         1 EPY       0.050200
     38 H5A2        -2.9530     4.9260     3.4140 h1         1 EPY       0.050200
     39 H5B1        -5.8470     0.3430    -3.9260 hx         1 EPY       0.093700
     40 HN51        -7.3100     2.6510    -4.2380 hn         1 EPY       0.465467
     41 HN52        -5.8830     1.7910    -4.4880 hn         1 EPY       0.465467
     42 H4B1        -6.3310     1.7730    -1.2890 hc         1 EPY       0.106700
     43 H4B2        -5.8850     0.0680    -1.4370 hc         1 EPY       0.106700
     44 H3B1        -3.8060     0.7130    -2.6120 hc         1 EPY       0.043200
     45 H3B2        -4.2520     2.4190    -2.4630 hc         1 EPY       0.043200
     46 HNB1        -1.8580     2.0060    -1.2810 hn         1 EPY       0.322500
     47 H1C1         2.1750     0.8840    -0.5110 h1         1 EPY       0.083700
     48 H3C1         1.6870     0.7030     1.9680 h1         1 EPY       0.048700
     49 H3C2         3.1650     0.6300     1.1820 h1         1 EPY       0.048700
     50 HOC2         2.3480    -1.2690     2.9330 ho         1 EPY       0.410000
     51 H2C1         2.0370    -1.2060    -1.7650 h1         1 EPY       0.062700
     52 H2C2         1.8920    -2.1320    -0.2640 h1         1 EPY       0.062700
     53 H9C1         6.2270    -2.1210    -0.8810 ha         1 EPY       0.162500
     54 H8C1         6.9350    -4.1600    -2.0700 ha         1 EPY       0.166000
     55 H6C1         2.8620    -5.0400    -3.0040 ha         1 EPY       0.166000
     56 H5C1         2.1450    -3.0050    -1.8140 ha         1 EPY       0.162500
     57 C2B         -3.7190     1.4810    -0.6270 c          1 EPY       0.668100
     58 H5B3        -5.9020     3.0310    -3.3480 hn         1 EPY       0.465467
     59 O6B         -8.7670     1.2730    -3.2620 o          1 EPY      -0.776800
@<TRIPOS>BOND
     1     1     5 1
     2     1    19 1
     3     2     3 1
     4     2     5 1
     5     2    18 1
     6     2    33 1
     7     3     4 1
     8     3     9 2
     9     4     6 1
    10     4    34 1
    11     5    35 1
    12     5    36 1
    13     6     7 1
    14     6    37 1
    15     6    38 1
    16     7     8 1
    17     7    10 1
    18    59    11 1
    19    11    12 1
    20    11    13 1
    21    13    14 1
    22    13    15 1
    23    13    39 1
    24    14    40 1
    25    14    41 1
    26    15    16 1
    27    15    42 1
    28    15    43 1
    29    16    57 1
    30    16    44 1
    31    16    45 1
    32    57    17 2
    33    57    18 1
    34    18    46 1
    35    19    20 1
    36    19    22 1
    37    19    47 1
    38    20    21 1
    39    20    48 1
    40    20    49 1
    41    21    50 1
    42    22    23 1
    43    22    51 1
    44    22    52 1
    45    23    24 1
    46    24    25 ar
    47    24    29 ar
    48    25    26 ar
    49    25    53 1
    50    26    27 ar
    51    26    54 1
    52    27    28 ar
    53    27    30 1
    54    28    29 ar
    55    28    55 1
    56    29    56 1
    57    30    31 1
    58    30    32 1
    59    58    14 1
@<TRIPOS>SUBSTRUCTURE
     1 EPY         1 TEMP              0 ****  ****    0 ROOT
