@<TRIPOS>MOLECULE
molecule
   28    30     1     0     0
SMALL
bcc


@<TRIPOS>ATOM
      1 C1           0.0000     0.0000     0.0000 c3         1 EQ2      -0.176100
      2 C2           1.5080     0.0000     0.0000 c          1 EQ2       0.503600
      3 O1           2.1140     0.0000     1.0490 o          1 EQ2      -0.596100
      4 C3           2.2430     0.0000    -1.2760 ca         1 EQ2       0.277800
      5 N1           1.5760     0.0060    -2.4200 nb         1 EQ2      -0.580000
      6 C4           2.1880     0.0060    -3.5960 ca         1 EQ2       0.362800
      7 C5           1.3830     0.0120    -4.8350 c          1 EQ2       0.784100
      8 O2           0.0380     0.0190    -4.7660 o          1 EQ2      -0.818300
      9 O3           1.9340     0.0130    -5.9180 o          1 EQ2      -0.818300
     10 C6           3.5830     0.0010    -3.6810 ca         1 EQ2      -0.133300
     11 C7           4.3280    -0.0050    -2.5070 cp         1 EQ2      -0.110000
     12 C8           5.7660    -0.0120    -2.1960 cp         1 EQ2      -0.081000
     13 C9           6.9210    -0.0140    -2.9750 ca         1 EQ2      -0.068000
     14 C10          8.1570    -0.0220    -2.3660 ca         1 EQ2      -0.178000
     15 C11          8.2560    -0.0250    -0.9830 ca         1 EQ2      -0.110000
     16 C12          7.1210    -0.0230    -0.2000 ca         1 EQ2      -0.165000
     17 C13          5.8640    -0.0160    -0.7960 ca         1 EQ2      -0.001200
     18 N2           4.5840    -0.0130    -0.2680 na         1 EQ2      -0.174300
     19 C14          3.6520    -0.0000    -1.2720 ca         1 EQ2      -0.079500
     20 H1          -0.3610     0.8860    -0.5090 hc         1 EQ2       0.063700
     21 H2          -0.3610    -0.8830    -0.5130 hc         1 EQ2       0.063700
     22 H3          -0.3610    -0.0020     1.0210 hc         1 EQ2       0.063700
     23 H5           4.0760     0.0010    -4.6460 ha         1 EQ2       0.162000
     24 H6           6.8480    -0.0110    -4.0550 ha         1 EQ2       0.135000
     25 H7           9.0560    -0.0240    -2.9700 ha         1 EQ2       0.120000
     26 H8           9.2320    -0.0310    -0.5130 ha         1 EQ2       0.118000
     27 H9           7.2090    -0.0260     0.8800 ha         1 EQ2       0.120000
     28 H10          4.3700    -0.0180     0.7090 hn         1 EQ2       0.314700
@<TRIPOS>BOND
     1     9     7 1
     2     3     2 2
     3     2     1 1
     4     2     4 1
     5     7     8 1
     6     7     6 1
     7     5     4 ar
     8     5     6 ar
     9     4    19 ar
    10     6    10 ar
    11    19    11 ar
    12    19    18 1
    13    10    11 ar
    14    11    12 1
    15    18    17 1
    16    12    17 ar
    17    12    13 ar
    18    17    16 ar
    19    13    14 ar
    20    16    15 ar
    21    14    15 ar
    22     1    20 1
    23     1    21 1
    24     1    22 1
    25    10    23 1
    26    13    24 1
    27    14    25 1
    28    15    26 1
    29    16    27 1
    30    18    28 1
@<TRIPOS>SUBSTRUCTURE
     1 EQ2         1 TEMP              0 ****  ****    0 ROOT
