@<TRIPOS>MOLECULE
molecule
   96    97     1     0     0
SMALL
bcc


@<TRIPOS>ATOM
      1 C32          0.0000     0.0000     0.0000 c3         1 EQ3      -0.079600
      2 C1           1.5300     0.0000     0.0000 c3         1 EQ3      -0.015800
      3 C31          2.0370     1.2540    -0.7160 c3         1 EQ3      -0.079600
      4 C2           2.0380     0.0000     1.4430 c3         1 EQ3      -0.073400
      5 C3           1.7390    -1.3690     2.0640 c3         1 EQ3       0.145100
      6 O3           2.0330    -1.3360     3.4620 oh         1 EQ3      -0.605800
      7 C4           2.6180    -2.4170     1.3800 c3         1 EQ3      -0.052200
      8 C5           2.5060    -2.2890    -0.1120 c2         1 EQ3      -0.103400
      9 C33          2.9640    -3.4460    -0.9620 c3         1 EQ3      -0.058900
     10 C6           2.0280    -1.2180    -0.7230 ce         1 EQ3      -0.103200
     11 C7           1.9840    -1.2180    -2.1390 ce         1 EQ3      -0.101000
     12 C8           3.1240    -1.4070    -2.8560 cf         1 EQ3      -0.145000
     13 C9           3.0640    -1.5220    -4.2540 cf         1 EQ3      -0.056200
     14 C34          1.7360    -1.4390    -4.9610 c3         1 EQ3      -0.064900
     15 C10          4.2100    -1.7110    -4.9740 ce         1 EQ3      -0.155000
     16 C11          4.1510    -1.8270    -6.3680 ce         1 EQ3      -0.099000
     17 C12          5.3080    -2.0170    -7.0940 cf         1 EQ3      -0.154000
     18 C13          5.2480    -2.1320    -8.4870 cf         1 EQ3      -0.031200
     19 C35          3.9200    -2.0480    -9.1930 c3         1 EQ3      -0.069900
     20 C14          6.4060    -2.3230    -9.2130 ce         1 EQ3      -0.174000
     21 C15          6.3460    -2.4370   -10.6030 ce         1 EQ3      -0.063000
     22 C16          7.5060    -2.6290   -11.3310 cf         1 EQ3      -0.176000
     23 C17          7.4470    -2.7430   -12.7210 cf         1 EQ3      -0.387000
     24 C18          8.6070    -2.9340   -13.4480 ce         1 EQ3      -0.044200
     25 C36          9.9350    -3.0180   -12.7420 c3         1 EQ3      -0.114900
     26 C19          8.5470    -3.0490   -14.8380 ce         1 EQ3      -0.052000
     27 C20          9.7080    -3.2410   -15.5660 cf         1 EQ3      -0.164000
     28 C21          9.6480    -3.3550   -16.9540 cf         1 EQ3      -0.400000
     29 C22         10.8080    -3.5460   -17.6830 ce         1 EQ3      -0.007200
     30 C37         12.1370    -3.6300   -16.9760 c3         1 EQ3      -0.118900
     31 C23         10.7490    -3.6610   -19.0710 ce         1 EQ3      -0.089000
     32 C24         11.9100    -3.8520   -19.8000 cf         1 EQ3      -0.133000
     33 C25         11.8570    -3.9110   -21.1910 cf         1 EQ3      -0.018200
     34 C26         11.0380    -4.8370   -21.8040 ce         1 EQ3      -0.202400
     35 C38         10.2210    -5.7750   -20.9530 c3         1 EQ3      -0.047900
     36 C27         10.9500    -4.9230   -23.1890 c          1 EQ3       0.574300
     37 O27         10.2160    -5.7510   -23.6950 o          1 EQ3      -0.535100
     38 C28         11.7540    -4.0020   -24.0680 c3         1 EQ3      -0.180400
     39 C29         11.9840    -2.6770   -23.3360 c3         1 EQ3      -0.066400
     40 C30         12.6920    -2.9600   -22.0080 c3         1 EQ3      -0.032800
     41 C40         14.0630    -3.5830   -22.2760 c3         1 EQ3      -0.081600
     42 C39         12.8670    -1.6470   -21.2410 c3         1 EQ3      -0.081600
     43 H1          -0.3610     0.6420     0.7950 hc         1 EQ3       0.037533
     44 H2          -0.3610     0.3670    -0.9530 hc         1 EQ3       0.037533
     45 H3          -0.3610    -1.0090     0.1580 hc         1 EQ3       0.037533
     46 H4           1.5620     1.3330    -1.6860 hc         1 EQ3       0.037533
     47 H5           1.7960     2.1290    -0.1240 hc         1 EQ3       0.037533
     48 H6           3.1100     1.1890    -0.8430 hc         1 EQ3       0.037533
     49 H7           3.1070     0.1770     1.4520 hc         1 EQ3       0.056700
     50 H8           1.5310     0.7740     2.0070 hc         1 EQ3       0.056700
     51 H9           0.6950    -1.6160     1.9130 h1         1 EQ3       0.036700
     52 H10          1.3060    -1.6930     3.9450 ho         1 EQ3       0.401000
     53 H11          2.2950    -3.4060     1.6790 hc         1 EQ3       0.060700
     54 H12          3.6500    -2.2670     1.6750 hc         1 EQ3       0.060700
     55 H13          3.9600    -3.2460    -1.3390 hc         1 EQ3       0.044700
     56 H14          2.2820    -3.5760    -1.7930 hc         1 EQ3       0.044700
     57 H15          2.9800    -4.3490    -0.3630 hc         1 EQ3       0.044700
     58 H16          1.0300    -1.1570    -2.6480 ha         1 EQ3       0.136000
     59 H17          4.0660    -1.5560    -2.3420 ha         1 EQ3       0.138000
     60 H18          1.6190    -0.4520    -5.3940 hc         1 EQ3       0.047700
     61 H19          0.9370    -1.6190    -4.2520 hc         1 EQ3       0.047700
     62 H20          1.6970    -2.1840    -5.7460 hc         1 EQ3       0.047700
     63 H21          5.1650    -1.7710    -4.4660 ha         1 EQ3       0.133000
     64 H22          3.1970    -1.7660    -6.8770 ha         1 EQ3       0.135000
     65 H23          6.2630    -2.0770    -6.5860 ha         1 EQ3       0.134000
     66 H24          4.0820    -1.8250   -10.2400 hc         1 EQ3       0.052367
     67 H25          3.4010    -2.9940    -9.1000 hc         1 EQ3       0.052367
     68 H26          3.3220    -1.2630    -8.7450 hc         1 EQ3       0.052367
     69 H27          7.3610    -2.3840    -8.7040 ha         1 EQ3       0.132000
     70 H28          5.3920    -2.3760   -11.1120 ha         1 EQ3       0.157000
     71 H29          8.4610    -2.6900   -10.8220 ha         1 EQ3       0.099000
     72 H30          7.7520    -1.8470   -12.1930 ha         1 EQ3       0.300000
     73 H31         10.4210    -2.0510   -12.7710 hc         1 EQ3       0.047033
     74 H32         10.5610    -3.7520   -13.2350 hc         1 EQ3       0.047033
     75 H33          9.7770    -3.3120   -11.7110 hc         1 EQ3       0.047033
     76 H34          7.5920    -2.9880   -15.3460 ha         1 EQ3       0.175000
     77 H35         10.6630    -3.3010   -15.0570 ha         1 EQ3       0.097000
     78 H36          9.9520    -2.4580   -16.4270 ha         1 EQ3       0.296000
     79 H37         12.4990    -2.6310   -16.7680 hc         1 EQ3       0.049367
     80 H38         12.8500    -4.1480   -17.6070 hc         1 EQ3       0.049367
     81 H39         12.0180    -4.1730   -16.0460 hc         1 EQ3       0.049367
     82 H40          9.8000    -3.5570   -19.5820 ha         1 EQ3       0.162000
     83 H41         12.8650    -3.9130   -19.2910 ha         1 EQ3       0.140000
     84 H42          9.2980    -5.2870   -20.6630 hc         1 EQ3       0.053367
     85 H43          9.9930    -6.6700   -21.5190 hc         1 EQ3       0.053367
     86 H44         10.7830    -6.0410   -20.0660 hc         1 EQ3       0.053367
     87 H45         11.2110    -3.8160   -24.9870 hc         1 EQ3       0.071200
     88 H46         12.7100    -4.4600   -24.2930 hc         1 EQ3       0.071200
     89 H47         11.0310    -2.2000   -23.1440 hc         1 EQ3       0.051700
     90 H48         12.6030    -2.0300   -23.9460 hc         1 EQ3       0.051700
     91 H49         13.9510    -4.6480   -22.4350 hc         1 EQ3       0.039700
     92 H50         14.5000    -3.1300   -23.1580 hc         1 EQ3       0.039700
     93 H51         14.7100    -3.4110   -21.4240 hc         1 EQ3       0.039700
     94 H52         13.3940    -0.9330   -21.8620 hc         1 EQ3       0.039700
     95 H53         13.4370    -1.8300   -20.3380 hc         1 EQ3       0.039700
     96 H54         11.8940    -1.2490   -20.9800 hc         1 EQ3       0.039700
@<TRIPOS>BOND
     1    37    36 2
     2    36    38 1
     3    36    34 1
     4    38    39 1
     5    35    34 1
     6    34    33 2
     7    39    40 1
     8    33    40 1
     9    33    32 1
    10    40    42 1
    11    40    41 1
    12    32    31 2
    13    31    29 1
    14    29    30 1
    15    29    28 2
    16    28    27 1
    17    27    26 2
    18    26    24 1
    19    24    25 1
    20    24    23 2
    21    23    22 1
    22    22    21 2
    23    21    20 1
    24    20    18 2
    25    19    18 1
    26    18    17 1
    27    17    16 2
    28    16    15 1
    29    15    13 2
    30    14    13 1
    31    13    12 1
    32    12    11 2
    33    11    10 1
    34     9     8 1
    35    10     8 2
    36    10     2 1
    37     8     7 1
    38     3     2 1
    39     2     1 1
    40     2     4 1
    41     7     5 1
    42     4     5 1
    43     5     6 1
    44     1    43 1
    45     1    44 1
    46     1    45 1
    47     3    46 1
    48     3    47 1
    49     3    48 1
    50     4    49 1
    51     4    50 1
    52     5    51 1
    53     6    52 1
    54     7    53 1
    55     7    54 1
    56     9    55 1
    57     9    56 1
    58     9    57 1
    59    11    58 1
    60    12    59 1
    61    14    60 1
    62    14    61 1
    63    14    62 1
    64    15    63 1
    65    16    64 1
    66    17    65 1
    67    19    66 1
    68    19    67 1
    69    19    68 1
    70    20    69 1
    71    21    70 1
    72    22    71 1
    73    23    72 1
    74    25    73 1
    75    25    74 1
    76    25    75 1
    77    26    76 1
    78    27    77 1
    79    28    78 1
    80    30    79 1
    81    30    80 1
    82    30    81 1
    83    31    82 1
    84    32    83 1
    85    35    84 1
    86    35    85 1
    87    35    86 1
    88    38    87 1
    89    38    88 1
    90    39    89 1
    91    39    90 1
    92    41    91 1
    93    41    92 1
    94    41    93 1
    95    42    94 1
    96    42    95 1
    97    42    96 1
@<TRIPOS>SUBSTRUCTURE
     1 EQ3         1 TEMP              0 ****  ****    0 ROOT
