@<TRIPOS>MOLECULE
molecule
   54    57     1     0     0
SMALL
bcc


@<TRIPOS>ATOM
      1 C04          0.0000     0.0000     0.0000 ca         1 EQ8      -0.078400
      2 C05          1.4450     0.0000     0.0000 ca         1 EQ8       0.138900
      3 C07          4.1790     0.0020    -1.1310 cc         1 EQ8       0.731100
      4 C09          3.6430     0.0020     1.1750 c          1 EQ8       0.707100
      5 C11          2.1820     0.0000     1.2030 ca         1 EQ8      -0.200600
      6 C12          1.4680    -0.0000     2.4050 ca         1 EQ8       0.111000
      7 C13          0.0860    -0.0010     2.4130 ca         1 EQ8      -0.190300
      8 C14         -0.6590     0.0000     1.2570 ca         1 EQ8       0.016000
      9 C15         -0.6320    -0.0020     3.7380 c3         1 EQ8       0.680200
     10 C20          4.7400     0.0020    -3.5310 c3         1 EQ8       0.204800
     11 C21          5.4060    -1.1930    -4.2260 c3         1 EQ8       0.219300
     12 C23          7.2300    -1.1980    -2.4720 c3         1 EQ8       0.219300
     13 C24          6.5590     0.0010    -1.7720 c3         1 EQ8       0.204800
     14 C28          8.2970    -2.9510    -5.4110 c3         1 EQ8      -0.195900
     15 C29          9.3530    -3.0830    -6.5090 c3         1 EQ8      -0.060400
     16 C30          9.6170    -4.5650    -6.7870 c3         1 EQ8      -0.069900
     17 C31          8.3210    -5.2370    -7.2430 c3         1 EQ8      -0.080400
     18 C32          7.2640    -5.1040    -6.1430 c3         1 EQ8      -0.069900
     19 C33          7.0010    -3.6230    -5.8660 c3         1 EQ8      -0.060400
     20 F16         -1.8580    -0.6630     3.6030 f          1 EQ8      -0.197967
     21 F17          0.1500    -0.6620     4.6910 f          1 EQ8      -0.197967
     22 F18         -0.8560     1.3160     4.1480 f          1 EQ8      -0.197967
     23 N02         -0.6890     0.0050    -1.1390 nu         1 EQ8      -0.070200
     24 N08          4.4820     0.0010     0.1650 nd         1 EQ8      -0.751100
     25 N19          5.1300     0.0010    -2.1140 nh         1 EQ8      -0.678600
     26 N22          6.8360    -1.1960    -3.8880 n3         1 EQ8      -0.824500
     27 O03         -0.1030     0.0100    -2.2050 o          1 EQ8      -0.056200
     28 O10          4.1710     0.0020     2.2730 o          1 EQ8      -0.492100
     29 O26          9.1190    -0.5910    -4.4760 o          1 EQ8      -0.619300
     30 O27          7.3360    -0.5870    -6.1910 o          1 EQ8      -0.619300
     31 S06          2.4250     0.0010    -1.4780 ss         1 EQ8      -0.015100
     32 S25          7.9840    -1.1950    -5.0820 s6         1 EQ8       1.320900
     33 H121         2.0070    -0.0020     3.3450 ha         1 EQ8       0.217000
     34 H141        -1.7410    -0.0000     1.3050 ha         1 EQ8       0.185000
     35 H201         3.6630    -0.0870    -3.6110 h1         1 EQ8       0.086700
     36 H202         5.0700     0.9220    -3.9970 h1         1 EQ8       0.086700
     37 H211         4.9490    -2.1130    -3.8820 h1         1 EQ8       0.077450
     38 H212         5.2870    -1.1000    -5.2990 h1         1 EQ8       0.077450
     39 H232         6.9030    -2.1190    -2.0070 h1         1 EQ8       0.077450
     40 H231         8.3060    -1.1070    -2.3950 h1         1 EQ8       0.077450
     41 H242         7.0150     0.9220    -2.1130 h1         1 EQ8       0.086700
     42 H241         6.6760    -0.0940    -0.6990 h1         1 EQ8       0.086700
     43 H281         8.6540    -3.4330    -4.5090 h1         1 EQ8       0.104700
     44 H292        10.2710    -2.6090    -6.1850 hc         1 EQ8       0.052950
     45 H291         8.9940    -2.6060    -7.4130 hc         1 EQ8       0.052950
     46 H302        10.3630    -4.6570    -7.5670 hc         1 EQ8       0.049700
     47 H301         9.9720    -5.0430    -5.8820 hc         1 EQ8       0.049700
     48 H311         7.9640    -4.7560    -8.1450 hc         1 EQ8       0.051200
     49 H312         8.5080    -6.2860    -7.4360 hc         1 EQ8       0.051200
     50 H321         7.6230    -5.5810    -5.2390 hc         1 EQ8       0.049700
     51 H322         6.3450    -5.5780    -6.4680 hc         1 EQ8       0.049700
     52 H332         6.6460    -3.1450    -6.7720 hc         1 EQ8       0.052950
     53 H331         6.2540    -3.5300    -5.0870 hc         1 EQ8       0.052950
     54 H1          -1.6900     0.0250    -1.1180 hn         1 EQ8       0.498800
@<TRIPOS>BOND
     1    16    17 1
     2    16    15 1
     3    17    18 1
     4    18    19 1
     5    15    14 1
     6    19    14 1
     7    14    32 1
     8    12    13 1
     9    12    26 1
    10    30    32 2
    11    27    23 2
    12    13    25 1
    13    32    26 1
    14    32    29 2
    15    26    11 1
    16    23     1 1
    17    11    10 1
    18    31     3 1
    19    31     2 1
    20    25    10 1
    21    25     3 1
    22     1     2 ar
    23     1     8 ar
    24     3    24 2
    25     2     5 ar
    26     8     7 ar
    27    24     4 1
    28     5     4 1
    29     5     6 ar
    30     7     6 ar
    31     7     9 1
    32     4    28 2
    33    20     9 1
    34     9    22 1
    35     9    21 1
    36     6    33 1
    37     8    34 1
    38    10    35 1
    39    10    36 1
    40    11    37 1
    41    11    38 1
    42    12    39 1
    43    12    40 1
    44    13    41 1
    45    13    42 1
    46    14    43 1
    47    15    44 1
    48    15    45 1
    49    16    46 1
    50    16    47 1
    51    17    48 1
    52    17    49 1
    53    18    50 1
    54    18    51 1
    55    19    52 1
    56    19    53 1
    57    23    54 1
@<TRIPOS>SUBSTRUCTURE
     1 EQ8         1 TEMP              0 ****  ****    0 ROOT
