@<TRIPOS>MOLECULE
EQ8
   54    57     1     0     0
SMALL
bcc


@<TRIPOS>ATOM
      1 C04          0.0000     0.0000     0.0000 ca         1 EQ8      -0.393400
      2 C05          1.4450     0.0000     0.0000 ca         1 EQ8       0.232900
      3 C07          4.1790     0.0020    -1.1310 cc         1 EQ8       0.582100
      4 C09          3.6430     0.0020     1.1750 c          1 EQ8       0.695100
      5 C11          2.1820     0.0000     1.2030 ca         1 EQ8      -0.199600
      6 C12          1.4680    -0.0000     2.4050 ca         1 EQ8       0.182000
      7 C13          0.0860    -0.0010     2.4130 ca         1 EQ8      -0.230300
      8 C14         -0.6590     0.0000     1.2570 ca         1 EQ8       0.097000
      9 C15         -0.6320    -0.0020     3.7380 c3         1 EQ8       0.644200
     10 C20          4.7400     0.0020    -3.5310 c3         1 EQ8       0.118800
     11 C21          5.4060    -1.1930    -4.2260 c3         1 EQ8       0.224800
     12 C23          7.2300    -1.1980    -2.4720 c3         1 EQ8       0.224800
     13 C24          6.5590     0.0010    -1.7720 c3         1 EQ8       0.118800
     14 C28          8.2970    -2.9510    -5.4110 c3         1 EQ8      -0.015900
     15 C29          9.3530    -3.0830    -6.5090 c3         1 EQ8      -0.000400
     16 C30          9.6170    -4.5650    -6.7870 c3         1 EQ8      -0.020900
     17 C31          8.3210    -5.2370    -7.2430 c3         1 EQ8      -0.025400
     18 C32          7.2640    -5.1040    -6.1430 c3         1 EQ8      -0.020900
     19 C33          7.0010    -3.6230    -5.8660 c3         1 EQ8      -0.000400
     20 F16         -1.8580    -0.6630     3.6030 f          1 EQ8      -0.187300
     21 F17          0.1500    -0.6620     4.6910 f          1 EQ8      -0.187300
     22 F18         -0.8560     1.3160     4.1480 f          1 EQ8      -0.187300
     23 N02         -0.6890     0.0050    -1.1390 nu         1 EQ8       0.858600
     24 N08          4.4820     0.0010     0.1650 nd         1 EQ8      -0.661100
     25 N19          5.1300     0.0010    -2.1140 nh         1 EQ8      -0.254600
     26 N22          6.8360    -1.1960    -3.8880 n3         1 EQ8      -0.563500
     27 O03         -0.1030     0.0100    -2.2050 o          1 EQ8      -0.382000
     28 O10          4.1710     0.0020     2.2730 o          1 EQ8      -0.531100
     29 O26          9.1190    -0.5910    -4.4760 o          1 EQ8      -0.570800
     30 O27          7.3360    -0.5870    -6.1910 o          1 EQ8      -0.570800
     31 S06          2.4250     0.0010    -1.4780 ss         1 EQ8      -0.176100
     32 S25          7.9840    -1.1950    -5.0820 s6         1 EQ8       0.967900
     33 H121         2.0070    -0.0020     3.3450 ha         1 EQ8       0.168000
     34 H141        -1.7410    -0.0000     1.3050 ha         1 EQ8       0.142000
     35 H201         3.6630    -0.0870    -3.6110 h1         1 EQ8       0.058200
     36 H202         5.0700     0.9220    -3.9970 h1         1 EQ8       0.058200
     37 H211         4.9490    -2.1130    -3.8820 h1         1 EQ8       0.041450
     38 H212         5.2870    -1.1000    -5.2990 h1         1 EQ8       0.041450
     39 H232         6.9030    -2.1190    -2.0070 h1         1 EQ8       0.041450
     40 H231         8.3060    -1.1070    -2.3950 h1         1 EQ8       0.041450
     41 H242         7.0150     0.9220    -2.1130 h1         1 EQ8       0.058200
     42 H241         6.6760    -0.0940    -0.6990 h1         1 EQ8       0.058200
     43 H281         8.6540    -3.4330    -4.5090 h1         1 EQ8       0.077700
     44 H292        10.2710    -2.6090    -6.1850 hc         1 EQ8       0.027200
     45 H291         8.9940    -2.6060    -7.4130 hc         1 EQ8       0.027200
     46 H302        10.3630    -4.6570    -7.5670 hc         1 EQ8       0.019450
     47 H301         9.9720    -5.0430    -5.8820 hc         1 EQ8       0.019450
     48 H311         7.9640    -4.7560    -8.1450 hc         1 EQ8       0.021200
     49 H312         8.5080    -6.2860    -7.4360 hc         1 EQ8       0.021200
     50 H321         7.6230    -5.5810    -5.2390 hc         1 EQ8       0.019450
     51 H322         6.3450    -5.5780    -6.4680 hc         1 EQ8       0.019450
     52 H332         6.6460    -3.1450    -6.7720 hc         1 EQ8       0.027200
     53 H331         6.2540    -3.5300    -5.0870 hc         1 EQ8       0.027200
     54 H1          -1.6900     0.0250    -1.1180 hn         1 EQ8       0.219800
@<TRIPOS>BOND
     1     1     2 ar  
     2     1     8 ar  
     3     1    23 1   
     4     2     5 ar  
     5     2    31 1   
     6     3    24 2   
     7     3    25 1   
     8     3    31 1   
     9     4     5 1   
    10     4    24 1   
    11     4    28 2   
    12     5     6 ar  
    13     6     7 ar  
    14     6    33 1   
    15     7     8 ar  
    16     7     9 1   
    17     8    34 1   
    18     9    20 1   
    19     9    21 1   
    20     9    22 1   
    21    10    11 1   
    22    10    25 1   
    23    10    35 1   
    24    10    36 1   
    25    11    26 1   
    26    11    37 1   
    27    11    38 1   
    28    12    13 1   
    29    12    26 1   
    30    12    39 1   
    31    12    40 1   
    32    13    25 1   
    33    13    41 1   
    34    13    42 1   
    35    14    15 1   
    36    14    19 1   
    37    14    32 1   
    38    14    43 1   
    39    15    16 1   
    40    15    44 1   
    41    15    45 1   
    42    16    17 1   
    43    16    46 1   
    44    16    47 1   
    45    17    18 1   
    46    17    48 1   
    47    17    49 1   
    48    18    19 1   
    49    18    50 1   
    50    18    51 1   
    51    19    52 1   
    52    19    53 1   
    53    23    27 1   
    54    23    54 1   
    55    26    32 1   
    56    29    32 2   
    57    30    32 2   
@<TRIPOS>SUBSTRUCTURE
     1 EQ8         1 TEMP              0 ****  ****    0 ROOT
