@<TRIPOS>MOLECULE
molecule
   21    21     1     0     0
SMALL
bcc


@<TRIPOS>ATOM
      1 C10          0.0000     0.0000     0.0000 ca         1 EQA      -0.063000
      2 C13          1.3860    -0.0130     2.4070 ca         1 EQA      -0.197000
      3 C02          1.3540     0.0050    -5.0040 c          1 EQA       0.848800
      4 C04          2.0910     0.0040    -3.7190 ce         1 EQA       0.143900
      5 C06          1.4100     0.0030    -2.5490 cf         1 EQA      -0.358200
      6 C07          2.1400     0.0020    -1.2770 c          1 EQA       0.569900
      7 C09          1.3970     0.0000     0.0000 ca         1 EQA      -0.182600
      8 C11         -0.6860    -0.0010     1.1950 ca         1 EQA      -0.168000
      9 C12          0.0040    -0.0070     2.3950 ca         1 EQA      -0.101000
     10 C14          2.0900     0.0000     1.2160 ca         1 EQA       0.174900
     11 F15          3.4410    -0.0050     1.2280 f          1 EQA      -0.119900
     12 O01          0.1400     0.0050    -5.0080 o          1 EQA      -0.817800
     13 O03          2.0320     0.0060    -6.1680 o          1 EQA      -0.817800
     14 O05          3.4440     0.0050    -3.7150 oh         1 EQA      -0.503100
     15 O08          3.3570     0.0020    -1.2730 o          1 EQA      -0.533100
     16 H1          -0.5430     0.0050    -0.9380 ha         1 EQA       0.160000
     17 H2           1.9190    -0.0150     3.3500 ha         1 EQA       0.133000
     18 H3           0.3270     0.0030    -2.5530 ha         1 EQA       0.154000
     19 H6          -1.7700     0.0010     1.1950 ha         1 EQA       0.127000
     20 H7          -0.5420    -0.0120     3.3300 ha         1 EQA       0.121000
     21 H4           3.7600    -0.7430    -4.1940 ho         1 EQA       0.431000
@<TRIPOS>BOND
     1    11    10 1
     2    15     6 2
     3    10     2 ar
     4    10     7 ar
     5     2     9 ar
     6    14     4 1
     7     6     7 1
     8     6     5 1
     9     7     1 ar
    10     9     8 ar
    11     4     5 2
    12     4     3 1
    13     1     8 ar
    14    12     3 1
    15     3    13 1
    16     1    16 1
    17     2    17 1
    18     5    18 1
    19     8    19 1
    20     9    20 1
    21    14    21 1
@<TRIPOS>SUBSTRUCTURE
     1 EQA         1 TEMP              0 ****  ****    0 ROOT
