@<TRIPOS>MOLECULE
molecule
   71    71     1     0     0
SMALL
bcc


@<TRIPOS>ATOM
      1 C4           1.5300     0.0000     0.0000 c3         1 EQB      -0.164700
      2 C5           2.0400     0.0000     1.4440 c3         1 EQB      -0.049700
      3 C6           1.5290    -1.2490     2.1640 c3         1 EQB      -0.098100
      4 C7           3.5710    -0.0000     1.4440 c3         1 EQB      -0.075400
      5 C8           4.0800     0.1250     2.8800 c3         1 EQB      -0.090100
      6 C15          0.4690     0.0090    -4.4610 c3         1 EQB      -0.077700
      7 C17          0.0310     0.1850    -5.9160 c3         1 EQB      -0.086100
      8 C21         -1.6730    -3.6540    -5.9790 c3         1 EQB       0.079700
      9 C22         -2.9430    -4.2130    -5.3320 c3         1 EQB      -0.086700
     10 C24         -2.7570    -4.2780    -3.8160 c3         1 EQB      -0.093100
     11 C1           2.0330     1.2300    -0.7100 c          1 EQB       0.897600
     12 O3           2.1800     2.2620    -0.0990 o          1 EQB      -0.837300
     13 C9           0.0000     0.0000     0.0000 c3         1 EQB       0.102100
     14 O10         -0.4760     1.1290     0.7360 oh         1 EQB      -0.544800
     15 C11         -0.5020     0.0780    -1.4190 c          1 EQB       0.659100
     16 O12         -1.1750     1.0220    -1.7740 o          1 EQB      -0.612100
     17 N13         -0.2020    -0.9030    -2.2940 ns         1 EQB      -0.564900
     18 C14         -0.5990    -0.7780    -3.6990 c3         1 EQB       0.059700
     19 C18         -0.7410    -2.1500    -4.3050 c          1 EQB       0.664100
     20 O19         -0.2500    -3.1110    -3.7520 o          1 EQB      -0.631100
     21 N20         -1.4140    -2.3090    -5.4610 ns         1 EQB      -0.579900
     22 C25         -1.8560    -3.5910    -7.4730 c          1 EQB       0.626100
     23 O26         -1.7790    -2.5310    -8.0470 o          1 EQB      -0.551000
     24 O27         -2.1060    -4.7130    -8.1670 os         1 EQB      -0.423900
     25 C29         -2.5430    -5.9300   -10.2080 ca         1 EQB      -0.094300
     26 C30         -3.8430    -6.3830   -10.3350 ca         1 EQB      -0.103000
     27 C31         -4.0920    -7.6250   -10.8890 ca         1 EQB      -0.133500
     28 C32         -3.0410    -8.4140   -11.3180 ca         1 EQB      -0.121000
     29 C33         -1.7410    -7.9610   -11.1920 ca         1 EQB      -0.133500
     30 C34         -1.4920    -6.7170   -10.6420 ca         1 EQB      -0.103000
     31 H1           1.8910    -0.8850    -0.5100 hc         1 EQB       0.048700
     32 H2           1.6790     0.8850     1.9540 hc         1 EQB       0.083700
     33 H3           0.4900    -1.1090     2.4380 hc         1 EQB       0.017700
     34 H4           1.6170    -2.1060     1.5080 hc         1 EQB       0.017700
     35 H5           2.1180    -1.4170     3.0580 hc         1 EQB       0.017700
     36 H6           3.9320    -0.9260     1.0120 hc         1 EQB       0.053700
     37 H7           3.9320     0.8360     0.8580 hc         1 EQB       0.053700
     38 H8           4.1720    -0.8620     3.3180 hc         1 EQB       0.019367
     39 H9           5.0480     0.6120     2.8790 hc         1 EQB       0.019367
     40 H10          3.3800     0.7140     3.4610 hc         1 EQB       0.019367
     41 H11          0.5430     0.9800    -3.9850 hc         1 EQB       0.124700
     42 H12          0.5610     1.0230    -6.3540 hc         1 EQB       0.033200
     43 H13         -1.0360     0.3750    -5.9510 hc         1 EQB       0.033200
     44 H14          0.2560    -0.7160    -6.4730 hc         1 EQB       0.033200
     45 H15         -0.8350    -4.2990    -5.7450 h1         1 EQB       0.107700
     46 H16         -3.1350    -5.2090    -5.7150 hc         1 EQB       0.059700
     47 H17         -1.7630    -4.6450    -3.5890 hc         1 EQB       0.041533
     48 H18         -2.8810    -3.2880    -3.3940 hc         1 EQB       0.041533
     49 H19         -3.4950    -4.9470    -3.3900 hc         1 EQB       0.041533
     50 H20         -1.3670    -4.1640   -10.0340 h1         1 EQB       0.055700
     51 H21         -3.1040    -3.9160    -9.8100 h1         1 EQB       0.055700
     52 H23         -0.3620    -0.9110     0.4620 h1         1 EQB       0.010700
     53 H24         -1.3420     0.9490     1.0620 ho         1 EQB       0.374000
     54 H25          0.2380    -1.7420    -1.9720 hn         1 EQB       0.328500
     55 H26         -1.5460    -0.2550    -3.7610 h1         1 EQB       0.075700
     56 H27          2.6150    -0.0640    -4.5680 hc         1 EQB       0.033200
     57 H28          1.8050    -1.5040    -5.1990 hc         1 EQB       0.033200
     58 H29          1.9010    -1.2380    -3.4530 hc         1 EQB       0.033200
     59 H30         -1.7650    -1.5090    -5.9500 hn         1 EQB       0.340500
     60 H31         -5.0040    -3.6430    -5.1260 hc         1 EQB       0.041533
     61 H32         -3.8940    -2.2870    -5.3700 hc         1 EQB       0.041533
     62 H33         -4.3210    -3.3370    -6.7290 hc         1 EQB       0.041533
     63 H34         -4.6670    -5.7650    -9.9990 ha         1 EQB       0.135000
     64 H35         -5.1110    -7.9800   -10.9880 ha         1 EQB       0.129500
     65 H36         -3.2350    -9.3870   -11.7510 ha         1 EQB       0.127000
     66 H37         -0.9170    -8.5780   -11.5300 ha         1 EQB       0.129500
     67 H38         -0.4730    -6.3630   -10.5430 ha         1 EQB       0.135000
     68 OXT          2.3180     1.1780    -2.0210 o          1 EQB      -0.837300
     69 C23         -4.1270    -3.3040    -5.6640 c3         1 EQB      -0.093100
     70 C16          1.7940    -0.7550    -4.4170 c3         1 EQB      -0.086100
     71 C28         -2.2710    -4.5770    -9.6030 c3         1 EQB       0.195700
@<TRIPOS>BOND
     1    16    15 2
     2     3     2 1
     3     7     6 1
     4    13    15 1
     5    13    14 1
     6    13     1 1
     7    15    17 1
     8     2     1 1
     9     2     4 1
    10     1    11 1
    11     6    18 1
    12     6    70 1
    13    17    18 1
    14    18    19 1
    15     4     5 1
    16    11    12 1
    17    19    21 1
    18    19    20 2
    19    21     8 1
    20    10     9 1
    21    23    22 2
    22     8     9 1
    23     8    22 1
    24     9    69 1
    25    22    24 1
    26    24    71 1
    27    71    25 1
    28    25    26 ar
    29    25    30 ar
    30    26    27 ar
    31    30    29 ar
    32    27    28 ar
    33    29    28 ar
    34     1    31 1
    35     2    32 1
    36     3    33 1
    37     3    34 1
    38     3    35 1
    39     4    36 1
    40     4    37 1
    41     5    38 1
    42     5    39 1
    43     5    40 1
    44     6    41 1
    45     7    42 1
    46     7    43 1
    47     7    44 1
    48     8    45 1
    49     9    46 1
    50    10    47 1
    51    10    48 1
    52    10    49 1
    53    71    50 1
    54    71    51 1
    55    13    52 1
    56    14    53 1
    57    17    54 1
    58    18    55 1
    59    70    56 1
    60    70    57 1
    61    70    58 1
    62    21    59 1
    63    69    60 1
    64    69    61 1
    65    69    62 1
    66    26    63 1
    67    27    64 1
    68    28    65 1
    69    29    66 1
    70    30    67 1
    71    11    68 1
@<TRIPOS>SUBSTRUCTURE
     1 EQB         1 TEMP              0 ****  ****    0 ROOT
