@<TRIPOS>MOLECULE
molecule
   40    42     1     0     0
SMALL
bcc


@<TRIPOS>ATOM
      1 CAB          0.0000     0.0000     0.0000 ca         1 EQD      -0.001600
      2 CAC          1.3820     0.0000     0.0000 ca         1 EQD      -0.048300
      3 CAD          2.1350     0.0020    -1.3060 c3         1 EQD      -0.043100
      4 CAE          2.3880     1.4460    -1.7470 c3         1 EQD      -0.087700
      5 CAF          3.1410     1.4470    -3.0520 cc         1 EQD       0.402800
      6 CAH          4.7510     1.3840    -4.4870 cd         1 EQD       0.312200
      7 CAI          3.6090     1.5110    -5.1900 cc         1 EQD      -0.277600
      8 CAL          0.7640     3.1300    -4.5390 ca         1 EQD      -0.120300
      9 CAM          0.9600     3.9310    -5.6490 ca         1 EQD      -0.109000
     10 CAN          0.5990     5.2640    -5.6110 ca         1 EQD      -0.126000
     11 CAO          0.0410     5.7970    -4.4650 ca         1 EQD      -0.116000
     12 CAP         -0.1560     4.9970    -3.3550 ca         1 EQD      -0.126000
     13 CAQ          0.2010     3.6620    -3.3940 ca         1 EQD      -0.109000
     14 CAR          2.0760     0.0000     1.1960 ca         1 EQD      -0.001600
     15 CAT          1.3850    -0.0020     2.4000 ca         1 EQD       0.132100
     16 CAV         -0.0020    -0.0030     2.4020 ca         1 EQD      -0.177000
     17 CAW         -0.6950     0.0030     1.2020 ca         1 EQD       0.132100
     18 NAG          4.4350     1.3450    -3.1840 nd         1 EQD      -0.693000
     19 NAJ          2.5870     1.5490    -4.2790 na         1 EQD      -0.176900
     20 OAU          2.0660    -0.0040     3.5760 oh         1 EQD      -0.505600
     21 OAX         -2.0540     0.0030     1.2020 oh         1 EQD      -0.505600
     22 ClB         -0.8680     0.0020    -1.5040 cl         1 EQD      -0.076900
     23 ClR          3.8120     0.0010     1.1920 cl         1 EQD      -0.076900
     24 H1           3.0820    -0.5080    -1.1780 hc         1 EQD       0.072200
     25 H2           1.5490    -0.5080    -2.0610 hc         1 EQD       0.072200
     26 H3           1.4410     1.9560    -1.8750 hc         1 EQD       0.068200
     27 H4           2.9740     1.9560    -0.9920 hc         1 EQD       0.068200
     28 H5           5.7490     1.3220    -4.9020 h4         1 EQD       0.039100
     29 H6           3.5170     1.5700    -6.2670 h4         1 EQD       0.170000
     30 H7           0.9610     1.2760    -5.5670 h1         1 EQD       0.068200
     31 H8           0.5840     1.1250    -3.8460 h1         1 EQD       0.068200
     32 H9           1.3970     3.5130    -6.5480 ha         1 EQD       0.132500
     33 H10          0.7530     5.8920    -6.4810 ha         1 EQD       0.134000
     34 H11         -0.2400     6.8430    -4.4350 ha         1 EQD       0.132000
     35 H12         -0.5950     5.4140    -2.4570 ha         1 EQD       0.134000
     36 H13          0.0470     3.0340    -2.5240 ha         1 EQD       0.132500
     37 H14         -0.5420    -0.0030     3.3410 ha         1 EQD       0.162000
     38 H15          2.1450    -0.8880     3.8930 ho         1 EQD       0.427000
     39 H16         -2.3680    -0.8820     1.2930 ho         1 EQD       0.427000
     40 CAK          1.1590     1.6770    -4.5800 c3         1 EQD       0.089600
@<TRIPOS>BOND
     1    21    17 1
     2    16    17 ar
     3    16    15 ar
     4    20    15 1
     5    17     1 ar
     6    15    14 ar
     7     1    22 1
     8     1     2 ar
     9    14     2 ar
    10    14    23 1
    11     2     3 1
    12    11    12 ar
    13    11    10 ar
    14    12    13 ar
    15     3     4 1
    16    10     9 ar
    17    13     8 ar
    18     9     8 ar
    19     8    40 1
    20     4     5 1
    21    40    19 1
    22     5    19 1
    23     5    18 2
    24    19     7 1
    25    18     6 1
    26     7     6 2
    27     3    24 1
    28     3    25 1
    29     4    26 1
    30     4    27 1
    31     6    28 1
    32     7    29 1
    33    40    30 1
    34    40    31 1
    35     9    32 1
    36    10    33 1
    37    11    34 1
    38    12    35 1
    39    13    36 1
    40    16    37 1
    41    20    38 1
    42    21    39 1
@<TRIPOS>SUBSTRUCTURE
     1 EQD         1 TEMP              0 ****  ****    0 ROOT
