@<TRIPOS>MOLECULE
EQE
   68    68     1     0     0
SMALL
bcc


@<TRIPOS>ATOM
      1 C4           1.5300     0.0000     0.0000 c3         1 EQE      -0.167700
      2 C5           2.0390     0.0000     1.4430 c3         1 EQE       0.000300
      3 C6           1.4140    -1.1690     2.2050 c3         1 EQE      -0.188100
      4 C7           3.5630    -0.1470     1.4450 c3         1 EQE      -0.188100
      5 C15          0.4390    -0.5200    -4.4310 c3         1 EQE      -0.052700
      6 C17          1.7610    -1.2500    -4.1810 c3         1 EQE      -0.033600
      7 C21         -1.9000    -4.2220    -5.5190 c3         1 EQE      -0.025300
      8 C22         -3.1600    -4.6810    -4.7820 c3         1 EQE      -0.059700
      9 C24         -3.4810    -6.1260    -5.1710 c3         1 EQE      -0.011600
     10 C1           2.0330     1.2290    -0.7110 c          1 EQE       0.969600
     11 O3           1.2490     2.0250    -1.1700 o          1 EQE      -0.862300
     12 C9           0.0000     0.0000     0.0000 c3         1 EQE       0.146100
     13 O10         -0.4760     1.1930     0.6270 oh         1 EQE      -0.506800
     14 C11         -0.5030    -0.0560    -1.4200 c          1 EQE       0.563100
     15 O12         -1.1170     0.8810    -1.8830 o          1 EQE      -0.605100
     16 N13         -0.2680    -1.1470    -2.1750 ns         1 EQE      -0.212900
     17 C14         -0.6640    -1.1610    -3.5850 c3         1 EQE      -0.039300
     18 C18         -0.8770    -2.5840    -4.0330 c          1 EQE       0.582100
     19 O19         -0.4070    -3.4990    -3.3920 o          1 EQE      -0.665100
     20 N20         -1.5930    -2.8390    -5.1470 ns         1 EQE      -0.191900
     21 C25         -2.1300    -4.3030    -7.0060 c          1 EQE       0.690100
     22 O26         -2.0460    -3.3080    -7.6860 o          1 EQE      -0.587000
     23 O27         -2.4280    -5.4820    -7.5760 os         1 EQE      -0.401900
     24 C61         -2.9590    -6.8850    -9.4700 ca         1 EQE      -0.114300
     25 C62         -4.2730    -7.3130    -9.5120 ca         1 EQE      -0.074500
     26 C63         -4.5690    -8.5960    -9.9310 ca         1 EQE      -0.107500
     27 C64         -3.5510    -9.4520   -10.3100 ca         1 EQE      -0.094000
     28 C65         -2.2380    -9.0230   -10.2700 ca         1 EQE      -0.107500
     29 C66         -1.9420    -7.7380    -9.8540 ca         1 EQE      -0.074500
     30 H1           1.8910    -0.8850    -0.5100 hc         1 EQE       0.017700
     31 H2           1.7660     0.9320     1.9220 hc         1 EQE       0.055700
     32 H3           1.3850    -2.0430     1.5670 hc         1 EQE       0.050533
     33 H4           0.4060    -0.9070     2.5040 hc         1 EQE       0.050533
     34 H5           2.0060    -1.3840     3.0860 hc         1 EQE       0.050533
     35 H6           4.2080    -0.9490     1.7820 hc         1 EQE       0.050533
     36 H7           3.3080    -0.9050     0.7150 hc         1 EQE       0.050533
     37 H8           3.3850    -0.0880     2.5120 hc         1 EQE       0.050533
     38 H9           0.1820    -0.5900    -5.4810 hc         1 EQE       0.005700
     39 H10          1.8320    -2.1040    -4.8440 hc         1 EQE       0.025200
     40 H11          1.7990    -1.5870    -3.1520 hc         1 EQE       0.025200
     41 H12          2.5870    -0.5760    -4.3710 hc         1 EQE       0.025200
     42 H13         -1.0690    -4.8620    -5.2470 h1         1 EQE       0.079700
     43 H14         -3.9900    -4.0410    -5.0550 hc         1 EQE       0.025700
     44 H15         -4.1500    -6.1310    -6.0220 hc         1 EQE       0.014367
     45 H16         -2.5640    -6.6430    -5.4290 hc         1 EQE       0.014367
     46 H17         -3.9550    -6.6270    -4.3360 hc         1 EQE       0.014367
     47 H18         -1.7370    -5.1410    -9.5090 h1         1 EQE       0.015200
     48 H19         -3.4600    -4.8260    -9.2590 h1         1 EQE       0.015200
     49 H21         -0.3610    -0.8630     0.5450 h1         1 EQE      -0.025300
     50 H22         -1.3050     1.0210     1.0410 ho         1 EQE       0.346000
     51 H23          0.1160    -1.9710    -1.7560 hn         1 EQE       0.191500
     52 H24         -1.5840    -0.6020    -3.7080 h1         1 EQE       0.056700
     53 H25          1.0600     1.4930    -4.8560 hc         1 EQE       0.025200
     54 H26         -0.3910     1.3750    -3.8510 hc         1 EQE       0.025200
     55 H27          1.1980     1.0320    -3.1530 hc         1 EQE       0.025200
     56 H28         -1.9020    -2.0840    -5.7270 hn         1 EQE       0.203500
     57 H29         -1.9600    -5.0250    -3.0320 hc         1 EQE       0.014367
     58 H30         -3.7030    -5.1490    -2.7570 hc         1 EQE       0.014367
     59 H31         -2.9510    -3.5610    -2.9600 hc         1 EQE       0.014367
     60 H32         -5.0710    -6.6430    -9.2150 ha         1 EQE       0.108000
     61 H33         -5.5980    -8.9310    -9.9620 ha         1 EQE       0.102500
     62 H34         -3.7820   -10.4580   -10.6370 ha         1 EQE       0.100000
     63 H35         -1.4400    -9.6930   -10.5690 ha         1 EQE       0.102500
     64 H36         -0.9130    -7.4020    -9.8230 ha         1 EQE       0.108000
     65 OXT          3.3520     1.4410    -0.8330 o          1 EQE      -0.862300
     66 C23         -2.9260    -4.5980    -3.2720 c3         1 EQE      -0.011600
     67 C16          0.5870     0.9520    -4.0440 c3         1 EQE      -0.033600
     68 C28         -2.6370    -5.4850    -9.0130 c3         1 EQE       0.279700
@<TRIPOS>BOND
     1     1     2 1   
     2     1    10 1   
     3     1    12 1   
     4     1    30 1   
     5     2     3 1   
     6     2     4 1   
     7     2    31 1   
     8     3    32 1   
     9     3    33 1   
    10     3    34 1   
    11     4    35 1   
    12     4    36 1   
    13     4    37 1   
    14     5     6 1   
    15     5    17 1   
    16     5    38 1   
    17     5    67 1   
    18     6    39 1   
    19     6    40 1   
    20     6    41 1   
    21     7     8 1   
    22     7    20 1   
    23     7    21 1   
    24     7    42 1   
    25     8     9 1   
    26     8    43 1   
    27     8    66 1   
    28     9    44 1   
    29     9    45 1   
    30     9    46 1   
    31    10    11 1   
    32    10    65 1   
    33    12    13 1   
    34    12    14 1   
    35    12    49 1   
    36    13    50 1   
    37    14    15 2   
    38    14    16 1   
    39    16    17 1   
    40    16    51 1   
    41    17    18 1   
    42    17    52 1   
    43    18    19 2   
    44    18    20 1   
    45    20    56 1   
    46    21    22 2   
    47    21    23 1   
    48    23    68 1   
    49    24    25 ar  
    50    24    29 ar  
    51    24    68 1   
    52    25    26 ar  
    53    25    60 1   
    54    26    27 ar  
    55    26    61 1   
    56    27    28 ar  
    57    27    62 1   
    58    28    29 ar  
    59    28    63 1   
    60    29    64 1   
    61    47    68 1   
    62    48    68 1   
    63    53    67 1   
    64    54    67 1   
    65    55    67 1   
    66    57    66 1   
    67    58    66 1   
    68    59    66 1   
@<TRIPOS>SUBSTRUCTURE
     1 EQE         1 TEMP              0 ****  ****    0 ROOT
