@<TRIPOS>MOLECULE
molecule
  107   109     1     0     0
SMALL
bcc


@<TRIPOS>ATOM
      1 C42          0.0000     0.0000     0.0000 c          1 EQG       0.755100
      2 O51          1.2160     0.0000     0.0000 o          1 EQG      -0.654000
      3 O43         -0.6720     0.0000     1.1670 os         1 EQG      -0.419900
      4 C44          0.1190    -0.0050     2.3830 c3         1 EQG       0.219700
      5 C45         -0.7980    -0.0030     3.5790 ca         1 EQG      -0.112300
      6 C46         -1.2190     1.1940     4.1260 ca         1 EQG      -0.101500
      7 C47         -2.0610     1.1960     5.2240 ca         1 EQG      -0.127500
      8 C48         -2.4810    -0.0010     5.7730 ca         1 EQG      -0.106000
      9 C49         -2.0620    -1.1990     5.2240 ca         1 EQG      -0.127500
     10 C50         -1.2240    -1.2000     4.1250 ca         1 EQG      -0.101500
     11 N41         -0.6740     0.0050    -1.1670 ns         1 EQG      -0.555900
     12 C33          0.0580     0.0030    -2.4360 c3         1 EQG       0.066700
     13 C34          0.4160    -1.4340    -2.8180 c3         1 EQG      -0.087400
     14 C35          1.3900    -2.0080    -1.7870 c3         1 EQG       0.091400
     15 C02         -0.8040     0.6090    -3.5130 c          1 EQG       0.653100
     16 O36          1.7250    -3.3500    -2.1440 os         1 EQG      -0.093100
     17 N37          2.6270    -3.9750    -1.2500 nu         1 EQG      -0.668700
     18 C38          3.0330    -5.2700    -1.4760 c2         1 EQG       0.700100
     19 N39          2.5860    -5.9210    -2.5130 n2         1 EQG      -0.745100
     20 N40          3.9090    -5.8770    -0.6070 nz         1 EQG      -0.804600
     21 O01         -1.9210     1.0030    -3.2470 o          1 EQG      -0.596100
     22 N03         -0.3360     0.7140    -4.7730 ns         1 EQG      -0.555900
     23 C04         -1.1730     1.3030    -5.8190 c3         1 EQG       0.044700
     24 C11         -0.7410     0.7780    -7.1640 c          1 EQG       0.652100
     25 O32          0.1780    -0.0100    -7.2400 o          1 EQG      -0.631100
     26 C05         -1.0260     2.8260    -5.7940 c3         1 EQG      -0.081700
     27 C10          0.4370     3.2010    -6.0410 c3         1 EQG      -0.074900
     28 C09          0.5840     4.7240    -6.0160 c3         1 EQG      -0.079900
     29 C08          0.1440     5.2560    -4.6510 c3         1 EQG      -0.080400
     30 C07         -1.3180     4.8810    -4.4050 c3         1 EQG      -0.079900
     31 C06         -1.4660     3.3580    -4.4300 c3         1 EQG      -0.074900
     32 N12         -1.3740     1.1850    -8.2820 ns         1 EQG      -0.564900
     33 C13         -0.8810     0.7650    -9.5970 c3         1 EQG       0.110700
     34 C28         -1.5220    -0.5710    -9.9780 c3         1 EQG      -0.093400
     35 C29         -0.9280    -1.0620   -11.3000 c3         1 EQG      -0.079700
     36 C30          0.5530    -1.3930   -11.1010 c3         1 EQG      -0.088600
     37 C31         -1.6740    -2.3160   -11.7590 c3         1 EQG      -0.088600
     38 C14         -1.2480     1.8230   -10.6400 c3         1 EQG       0.150100
     39 O15         -2.6680     1.9720   -10.6890 oh         1 EQG      -0.613800
     40 C16         -0.6070     3.1590   -10.2580 c3         1 EQG      -0.181400
     41 C17         -0.8650     4.1680   -11.3470 c          1 EQG       0.663100
     42 O27         -1.4980     3.8510   -12.3320 o          1 EQG      -0.618100
     43 C21         -0.2580     8.7520   -12.9920 ca         1 EQG      -0.090300
     44 C22         -1.3900     9.5450   -12.9450 ca         1 EQG      -0.121500
     45 C23         -1.6230    10.4760   -13.9410 ca         1 EQG      -0.123000
     46 C24         -0.7250    10.6130   -14.9830 ca         1 EQG      -0.123000
     47 C25          0.4070     9.8190   -15.0290 ca         1 EQG      -0.123000
     48 C26          0.6400     8.8900   -14.0340 ca         1 EQG      -0.121500
     49 C20         -0.0000     7.7420   -11.9030 c3         1 EQG      -0.052100
     50 C19         -0.6410     6.4060   -12.2850 c3         1 EQG       0.113000
     51 N18         -0.3900     5.4250   -11.2270 ns         1 EQG      -0.586900
     52 H441         0.7400    -0.8920     2.4060 h1         1 EQG       0.050200
     53 H442         0.7480     0.8770     2.4090 h1         1 EQG       0.050200
     54 H461        -0.8890     2.1310     3.6960 ha         1 EQG       0.129000
     55 H471        -2.3900     2.1340     5.6530 ha         1 EQG       0.138000
     56 H481        -3.1390    -0.0000     6.6330 ha         1 EQG       0.139000
     57 H491        -2.3930    -2.1370     5.6530 ha         1 EQG       0.138000
     58 H501        -0.8950    -2.1380     3.6960 ha         1 EQG       0.129000
     59 H411        -1.6750    -0.0230    -1.1660 hn         1 EQG       0.357500
     60 H331         0.9650     0.5850    -2.3300 h1         1 EQG       0.100700
     61 H341         0.8790    -1.4440    -3.7970 hc         1 EQG       0.077700
     62 H342        -0.4840    -2.0370    -2.8380 hc         1 EQG       0.077700
     63 H351         2.2900    -1.4040    -1.7670 h1         1 EQG       0.063700
     64 H352         0.9270    -1.9990    -0.8080 h1         1 EQG       0.063700
     65 H371         3.0070    -3.4600    -0.4810 hn         1 EQG       0.467800
     66 H391         2.8810    -6.8630    -2.6770 hn         1 EQG       0.434400
     67 H1           3.9530    -5.3530     0.2440 hn         1 EQG       0.467800
     68 H401         4.8190    -5.9150    -1.0230 hn         1 EQG       0.467800
     69 H031         0.5780     0.3710    -4.9960 hn         1 EQG       0.336500
     70 H041        -2.2090     1.0370    -5.6450 h1         1 EQG       0.098700
     71 H051        -1.6450     3.2650    -6.5680 hc         1 EQG       0.062700
     72 H101         1.0550     2.7670    -5.2650 hc         1 EQG       0.048450
     73 H102         0.7460     2.8250    -7.0090 hc         1 EQG       0.048450
     74 H091        -0.0380     5.1580    -6.7890 hc         1 EQG       0.043950
     75 H092         1.6200     4.9880    -6.1880 hc         1 EQG       0.043950
     76 H081         0.2460     6.3340    -4.6360 hc         1 EQG       0.043200
     77 H082         0.7630     4.8180    -3.8780 hc         1 EQG       0.043200
     78 H071        -1.9370     5.3160    -5.1810 hc         1 EQG       0.043950
     79 H072        -1.6280     5.2570    -3.4370 hc         1 EQG       0.043950
     80 H061        -0.8450     2.9240    -3.6560 hc         1 EQG       0.048450
     81 H062        -2.5030     3.0950    -4.2580 hc         1 EQG       0.048450
     82 H121        -2.2050     1.7370    -8.2130 hn         1 EQG       0.334500
     83 H131         0.1950     0.6520    -9.5600 h1         1 EQG       0.083700
     84 H281        -2.5920    -0.4400   -10.0890 hc         1 EQG       0.059700
     85 H282        -1.3270    -1.3000    -9.2010 hc         1 EQG       0.059700
     86 H291        -1.0270    -0.2870   -12.0510 hc         1 EQG       0.049700
     87 H301         1.1140    -0.4760   -10.9700 hc         1 EQG       0.035867
     88 H302         0.6690    -2.0150   -10.2220 hc         1 EQG       0.035867
     89 H303         0.9250    -1.9230   -11.9690 hc         1 EQG       0.035867
     90 H311        -2.7250    -2.0860   -11.8830 hc         1 EQG       0.035867
     91 H312        -1.2650    -2.6550   -12.7030 hc         1 EQG       0.035867
     92 H313        -1.5610    -3.0960   -11.0160 hc         1 EQG       0.035867
     93 H141        -0.8840     1.5130   -11.6120 h1         1 EQG       0.069700
     94 H151        -2.9500     2.0000   -11.5880 ho         1 EQG       0.431000
     95 H161         0.4610     3.0250   -10.1350 hc         1 EQG       0.068700
     96 H162        -1.0360     3.5130    -9.3280 hc         1 EQG       0.068700
     97 H221        -2.0940     9.4380   -12.1280 ha         1 EQG       0.129500
     98 H231        -2.5090    11.0970   -13.9050 ha         1 EQG       0.133000
     99 H241        -0.9070    11.3420   -15.7630 ha         1 EQG       0.133000
    100 H251         1.1110     9.9270   -15.8450 ha         1 EQG       0.133000
    101 H261         1.5270     8.2680   -14.0700 ha         1 EQG       0.129500
    102 H201        -0.4290     8.0960   -10.9730 hc         1 EQG       0.050200
    103 H202         1.0680     7.6080   -11.7800 hc         1 EQG       0.050200
    104 H191        -1.7090     6.5400   -12.4080 h1         1 EQG       0.060700
    105 H192        -0.2120     6.0530   -13.2150 h1         1 EQG       0.060700
    106 H181         0.1600     5.6780   -10.4300 hn         1 EQG       0.311500
    107 H403         3.5980    -6.8100    -0.4180 hn         1 EQG       0.467800
@<TRIPOS>BOND
     1    27    26 1
     2    27    28 1
     3    33    38 1
     4    33    34 1
     5    33    32 1
     6    40    38 1
     7    40    41 1
     8    41    51 1
     9    41    42 2
    10    38    39 1
    11    49    43 1
    12    49    50 1
    13    44    43 ar
    14    44    45 ar
    15    48    43 ar
    16    48    47 ar
    17    47    46 ar
    18    46    45 ar
    19    15    22 1
    20    15    21 2
    21    15    12 1
    22    23    24 1
    23    23    26 1
    24    23    22 1
    25    26    31 1
    26    31    30 1
    27    30    29 1
    28    29    28 1
    29    24    32 1
    30    24    25 2
    31    50    51 1
    32    34    35 1
    33    35    36 1
    34    35    37 1
    35    12    13 1
    36    12    11 1
    37    13    14 1
    38    14    16 1
    39    18    20 1
    40    18    17 1
    41    18    19 2
    42     1    11 1
    43     1     3 1
    44     1     2 2
    45     4     3 1
    46     4     5 1
    47     5    10 ar
    48     5     6 ar
    49     6     7 ar
    50     7     8 ar
    51     8     9 ar
    52     9    10 ar
    53    17    16 1
    54    27    73 1
    55    27    72 1
    56    33    83 1
    57    40    95 1
    58    40    96 1
    59    38    93 1
    60    49   102 1
    61    49   103 1
    62    44    97 1
    63    48   101 1
    64    47   100 1
    65    46    99 1
    66    45    98 1
    67    23    70 1
    68    26    71 1
    69    31    80 1
    70    31    81 1
    71    30    78 1
    72    30    79 1
    73    29    76 1
    74    29    77 1
    75    28    75 1
    76    28    74 1
    77    50   104 1
    78    50   105 1
    79    34    84 1
    80    34    85 1
    81    35    86 1
    82    36    87 1
    83    36    89 1
    84    36    88 1
    85    37    90 1
    86    37    92 1
    87    37    91 1
    88    12    60 1
    89    13    62 1
    90    13    61 1
    91    14    64 1
    92    14    63 1
    93     4    52 1
    94     4    53 1
    95     6    54 1
    96     7    55 1
    97     8    56 1
    98     9    57 1
    99    10    58 1
   100    22    69 1
   101    32    82 1
   102    51   106 1
   103    17    65 1
   104    19    66 1
   105    20    68 1
   106    20    67 1
   107    11    59 1
   108    39    94 1
   109   107    20 1
@<TRIPOS>SUBSTRUCTURE
     1 EQG         1 TEMP              0 ****  ****    0 ROOT
