@<TRIPOS>MOLECULE
EQG
  107   109     1     0     0
SMALL
bcc


@<TRIPOS>ATOM
      1 C42          0.0000     0.0000     0.0000 c          1 EQG       0.685100
      2 O51          1.2160     0.0000     0.0000 o          1 EQG      -0.705000
      3 O43         -0.6720     0.0000     1.1670 os         1 EQG      -0.404900
      4 C44          0.1190    -0.0050     2.3830 c3         1 EQG       0.308700
      5 C45         -0.7980    -0.0030     3.5790 ca         1 EQG      -0.134300
      6 C46         -1.2190     1.1940     4.1260 ca         1 EQG      -0.074000
      7 C47         -2.0610     1.1960     5.2240 ca         1 EQG      -0.100000
      8 C48         -2.4810    -0.0010     5.7730 ca         1 EQG      -0.078000
      9 C49         -2.0620    -1.1990     5.2240 ca         1 EQG      -0.100000
     10 C50         -1.2240    -1.2000     4.1250 ca         1 EQG      -0.074000
     11 N41         -0.6740     0.0050    -1.1670 ns         1 EQG      -0.149900
     12 C33          0.0580     0.0030    -2.4360 c3         1 EQG      -0.037300
     13 C34          0.4160    -1.4340    -2.8180 c3         1 EQG      -0.041400
     14 C35          1.3900    -2.0080    -1.7870 c3         1 EQG       0.188400
     15 C02         -0.8040     0.6090    -3.5130 c          1 EQG       0.558100
     16 O36          1.7250    -3.3500    -2.1440 os         1 EQG      -0.236100
     17 N37          2.6270    -3.9750    -1.2500 nu         1 EQG      -0.271700
     18 C38          3.0330    -5.2700    -1.4760 c2         1 EQG       0.236100
     19 N39          2.5860    -5.9210    -2.5130 n2         1 EQG      -0.602100
     20 N40          3.9090    -5.8770    -0.6070 nz         1 EQG       0.201400
     21 O01         -1.9210     1.0030    -3.2470 o          1 EQG      -0.642100
     22 N03         -0.3360     0.7140    -4.7730 ns         1 EQG      -0.145900
     23 C04         -1.1730     1.3030    -5.8190 c3         1 EQG      -0.056300
     24 C11         -0.7410     0.7780    -7.1640 c          1 EQG       0.565100
     25 O32          0.1780    -0.0100    -7.2400 o          1 EQG      -0.676100
     26 C05         -1.0260     2.8260    -5.7940 c3         1 EQG      -0.059700
     27 C10          0.4370     3.2010    -6.0410 c3         1 EQG      -0.035400
     28 C09          0.5840     4.7240    -6.0160 c3         1 EQG      -0.021400
     29 C08          0.1440     5.2560    -4.6510 c3         1 EQG      -0.026400
     30 C07         -1.3180     4.8810    -4.4050 c3         1 EQG      -0.021400
     31 C06         -1.4660     3.3580    -4.4300 c3         1 EQG      -0.035400
     32 N12         -1.3740     1.1850    -8.2820 ns         1 EQG      -0.155900
     33 C13         -0.8810     0.7650    -9.5970 c3         1 EQG      -0.007300
     34 C28         -1.5220    -0.5710    -9.9780 c3         1 EQG      -0.046400
     35 C29         -0.9280    -1.0620   -11.3000 c3         1 EQG      -0.057700
     36 C30          0.5530    -1.3930   -11.1010 c3         1 EQG       0.003900
     37 C31         -1.6740    -2.3160   -11.7590 c3         1 EQG       0.003900
     38 C14         -1.2480     1.8230   -10.6400 c3         1 EQG       0.189100
     39 O15         -2.6680     1.9720   -10.6890 oh         1 EQG      -0.598800
     40 C16         -0.6070     3.1590   -10.2580 c3         1 EQG      -0.130400
     41 C17         -0.8650     4.1680   -11.3470 c          1 EQG       0.580100
     42 O27         -1.4980     3.8510   -12.3320 o          1 EQG      -0.655100
     43 C21         -0.2580     8.7520   -12.9920 ca         1 EQG      -0.097300
     44 C22         -1.3900     9.5450   -12.9450 ca         1 EQG      -0.094500
     45 C23         -1.6230    10.4760   -13.9410 ca         1 EQG      -0.095000
     46 C24         -0.7250    10.6130   -14.9830 ca         1 EQG      -0.096000
     47 C25          0.4070     9.8190   -15.0290 ca         1 EQG      -0.095000
     48 C26          0.6400     8.8900   -14.0340 ca         1 EQG      -0.094500
     49 C20         -0.0000     7.7420   -11.9030 c3         1 EQG       0.021900
     50 C19         -0.6410     6.4060   -12.2850 c3         1 EQG       0.049000
     51 N18         -0.3900     5.4250   -11.2270 ns         1 EQG      -0.195900
     52 H441         0.7400    -0.8920     2.4060 h1         1 EQG       0.007700
     53 H442         0.7480     0.8770     2.4090 h1         1 EQG       0.007700
     54 H461        -0.8890     2.1310     3.6960 ha         1 EQG       0.101500
     55 H471        -2.3900     2.1340     5.6530 ha         1 EQG       0.108500
     56 H481        -3.1390    -0.0000     6.6330 ha         1 EQG       0.108000
     57 H491        -2.3930    -2.1370     5.6530 ha         1 EQG       0.108500
     58 H501        -0.8950    -2.1380     3.6960 ha         1 EQG       0.101500
     59 H411        -1.6750     0.0070    -1.1660 hn         1 EQG       0.212500
     60 H331         0.9650     0.5850    -2.3300 h1         1 EQG       0.072700
     61 H341         0.8790    -1.4440    -3.7970 hc         1 EQG       0.040700
     62 H342        -0.4840    -2.0370    -2.8380 hc         1 EQG       0.040700
     63 H351         0.9270    -1.9990    -0.8080 h1         1 EQG       0.032700
     64 H352         2.2900    -1.4040    -1.7670 h1         1 EQG       0.032700
     65 H371         2.9850    -3.4690    -0.4640 hn         1 EQG       0.297800
     66 H391         1.9490    -5.4800    -3.1450 hn         1 EQG       0.392400
     67 H1           4.7270    -5.3100    -0.5060 hn         1 EQG       0.221800
     68 H401         3.4700    -5.9910     0.2850 hn         1 EQG       0.221800
     69 H031         0.5740     0.3640    -4.9980 hn         1 EQG       0.198500
     70 H041        -2.2090     1.0370    -5.6450 h1         1 EQG       0.071700
     71 H051        -1.6450     3.2650    -6.5680 hc         1 EQG       0.039700
     72 H101         1.0550     2.7670    -5.2650 hc         1 EQG       0.024700
     73 H102         0.7460     2.8250    -7.0090 hc         1 EQG       0.024700
     74 H091         1.6200     4.9880    -6.1880 hc         1 EQG       0.016200
     75 H092        -0.0380     5.1580    -6.7890 hc         1 EQG       0.016200
     76 H081         0.2460     6.3340    -4.6360 hc         1 EQG       0.015700
     77 H082         0.7630     4.8180    -3.8780 hc         1 EQG       0.015700
     78 H071        -1.9370     5.3160    -5.1810 hc         1 EQG       0.016200
     79 H072        -1.6280     5.2570    -3.4370 hc         1 EQG       0.016200
     80 H061        -2.5030     3.0950    -4.2580 hc         1 EQG       0.024700
     81 H062        -0.8450     2.9240    -3.6560 hc         1 EQG       0.024700
     82 H121        -2.2100     1.7300    -8.2120 hn         1 EQG       0.194500
     83 H131         0.1950     0.6520    -9.5600 h1         1 EQG       0.065700
     84 H281        -1.3270    -1.3000    -9.2010 hc         1 EQG       0.032700
     85 H282        -2.5920    -0.4400   -10.0890 hc         1 EQG       0.032700
     86 H291        -1.0270    -0.2870   -12.0510 hc         1 EQG       0.031700
     87 H301         0.6920    -1.8580   -10.1320 hc         1 EQG       0.005367
     88 H302         0.8790    -2.0740   -11.8780 hc         1 EQG       0.005367
     89 H303         1.1370    -0.4820   -11.1510 hc         1 EQG       0.005367
     90 H311        -2.7270    -2.0890   -11.8730 hc         1 EQG       0.005367
     91 H312        -1.2720    -2.6490   -12.7080 hc         1 EQG       0.005367
     92 H313        -1.5510    -3.1000   -11.0210 hc         1 EQG       0.005367
     93 H141        -0.8840     1.5130   -11.6120 h1         1 EQG       0.040700
     94 H151        -2.9550     1.9510   -11.5870 ho         1 EQG       0.422000
     95 H161        -1.0360     3.5130    -9.3280 hc         1 EQG       0.035700
     96 H162         0.4610     3.0250   -10.1350 hc         1 EQG       0.035700
     97 H221        -2.0940     9.4380   -12.1280 ha         1 EQG       0.104500
     98 H231        -2.5090    11.0970   -13.9050 ha         1 EQG       0.105000
     99 H241        -0.9070    11.3420   -15.7630 ha         1 EQG       0.105000
    100 H251         1.1110     9.9270   -15.8450 ha         1 EQG       0.105000
    101 H261         1.5270     8.2680   -14.0700 ha         1 EQG       0.104500
    102 H201         1.0680     7.6080   -11.7800 hc         1 EQG       0.018200
    103 H202        -0.4290     8.0960   -10.9730 hc         1 EQG       0.018200
    104 H191        -1.7090     6.5400   -12.4080 h1         1 EQG       0.032700
    105 H192        -0.2120     6.0530   -13.2150 h1         1 EQG       0.032700
    106 H181         0.1480     5.6820   -10.4230 hn         1 EQG       0.171500
    107 H403         4.1750    -6.7710    -0.9720 hn         1 EQG       0.221800
@<TRIPOS>BOND
     1     1     2 2   
     2     1     3 1   
     3     1    11 1   
     4     3     4 1   
     5     4     5 1   
     6     4    52 1   
     7     4    53 1   
     8     5     6 ar  
     9     5    10 ar  
    10     6     7 ar  
    11     6    54 1   
    12     7     8 ar  
    13     7    55 1   
    14     8     9 ar  
    15     8    56 1   
    16     9    10 ar  
    17     9    57 1   
    18    10    58 1   
    19    11    12 1   
    20    11    59 1   
    21    12    13 1   
    22    12    15 1   
    23    12    60 1   
    24    13    14 1   
    25    13    61 1   
    26    13    62 1   
    27    14    16 1   
    28    14    63 1   
    29    14    64 1   
    30    15    21 2   
    31    15    22 1   
    32    16    17 1   
    33    17    18 1   
    34    17    65 1   
    35    18    19 2   
    36    18    20 1   
    37    19    66 1   
    38    20    67 1   
    39    20    68 1   
    40    20   107 1   
    41    22    23 1   
    42    22    69 1   
    43    23    24 1   
    44    23    26 1   
    45    23    70 1   
    46    24    25 2   
    47    24    32 1   
    48    26    27 1   
    49    26    31 1   
    50    26    71 1   
    51    27    28 1   
    52    27    72 1   
    53    27    73 1   
    54    28    29 1   
    55    28    74 1   
    56    28    75 1   
    57    29    30 1   
    58    29    76 1   
    59    29    77 1   
    60    30    31 1   
    61    30    78 1   
    62    30    79 1   
    63    31    80 1   
    64    31    81 1   
    65    32    33 1   
    66    32    82 1   
    67    33    34 1   
    68    33    38 1   
    69    33    83 1   
    70    34    35 1   
    71    34    84 1   
    72    34    85 1   
    73    35    36 1   
    74    35    37 1   
    75    35    86 1   
    76    36    87 1   
    77    36    88 1   
    78    36    89 1   
    79    37    90 1   
    80    37    91 1   
    81    37    92 1   
    82    38    39 1   
    83    38    40 1   
    84    38    93 1   
    85    39    94 1   
    86    40    41 1   
    87    40    95 1   
    88    40    96 1   
    89    41    42 2   
    90    41    51 1   
    91    43    44 ar  
    92    43    48 ar  
    93    43    49 1   
    94    44    45 ar  
    95    44    97 1   
    96    45    46 ar  
    97    45    98 1   
    98    46    47 ar  
    99    46    99 1   
   100    47    48 ar  
   101    47   100 1   
   102    48   101 1   
   103    49    50 1   
   104    49   102 1   
   105    49   103 1   
   106    50    51 1   
   107    50   104 1   
   108    50   105 1   
   109    51   106 1   
@<TRIPOS>SUBSTRUCTURE
     1 EQG         1 TEMP              0 ****  ****    0 ROOT
