@<TRIPOS>MOLECULE
EQH
   44    47     1     0     0
SMALL
bcc


@<TRIPOS>ATOM
      1 N01          0.0000     0.0000     0.0000 nv         1 EQH      -0.583500
      2 C02          1.3910     0.0000     0.0000 ca         1 EQH       0.375900
      3 N03          2.0530     0.0000     1.1520 nb         1 EQH      -0.614000
      4 C04          3.3730    -0.0010     1.1530 ca         1 EQH       0.303900
      5 C05          4.0720    -0.0010    -0.0550 ca         1 EQH       0.307500
      6 C06          5.5500    -0.0020    -0.0540 cc         1 EQH      -0.019600
      7 S07          6.5660     1.0410     0.9340 ss         1 EQH      -0.297800
      8 C08          8.0180     0.3210     0.2520 cc         1 EQH      -0.014100
      9 C09          7.6830    -0.6180    -0.6380 cd         1 EQH      -0.116000
     10 C10          6.3280    -0.8040    -0.8080 cd         1 EQH      -0.037300
     11 C11          5.7610    -1.8230    -1.7630 cx         1 EQH      -0.044400
     12 C12          6.2160    -1.7530    -3.2220 cx         1 EQH      -0.076900
     13 C13          6.7170    -2.8810    -2.3180 cx         1 EQH      -0.076900
     14 N14          3.4060     0.0000    -1.2080 nb         1 EQH      -0.464000
     15 C15          2.0870    -0.0050    -1.2070 ca         1 EQH       0.256300
     16 C16          1.3320    -0.0120    -2.5110 c3         1 EQH      -0.088000
     17 C17          1.5730     1.3080    -3.2460 c3         1 EQH      -0.045900
     18 C18          0.8070     1.3020    -4.5700 c3         1 EQH       0.004600
     19 C19          1.2950     0.1380    -5.4360 c3         1 EQH      -0.154700
     20 C20          2.7690     0.2990    -5.7090 c          1 EQH       0.986600
     21 O21          3.3670     1.2460    -5.2570 o          1 EQH      -0.895800
     22 O22          3.4160    -0.6120    -6.4530 o          1 EQH      -0.895800
     23 C23          1.0530    -1.1820    -4.7010 c3         1 EQH       0.004600
     24 C24          1.8200    -1.1750    -3.3770 c3         1 EQH      -0.045900
     25 H011        -0.5000    -0.6810    -0.5370 hn         1 EQH       0.271300
     26 H012        -0.5000     0.6330     0.5920 hn         1 EQH       0.271300
     27 H04          3.9140    -0.0010     2.0920 h4         1 EQH      -0.013900
     28 H08          9.0320     0.5980     0.5150 h4         1 EQH       0.140000
     29 H121         5.4740    -2.0390    -3.9580 hc         1 EQH       0.051450
     30 H122         6.9400    -0.9810    -3.4500 hc         1 EQH       0.051450
     31 H131         7.7470    -2.7970    -1.9920 hc         1 EQH       0.051450
     32 H132         6.2810    -3.8560    -2.5010 hc         1 EQH       0.051450
     33 H16          0.2720    -0.1270    -2.3190 hc         1 EQH       0.012700
     34 H171         2.6320     1.4210    -3.4440 hc         1 EQH       0.035950
     35 H172         1.2250     2.1300    -2.6330 hc         1 EQH       0.035950
     36 H241         2.8780    -1.0570    -3.5740 hc         1 EQH       0.035950
     37 H242         1.6460    -2.1090    -2.8560 hc         1 EQH       0.035950
     38 H181        -0.2510     1.1850    -4.3730 hc         1 EQH      -0.001800
     39 H182         0.9820     2.2360    -5.0910 hc         1 EQH      -0.001800
     40 H19          0.7490     0.1340    -6.3710 hc         1 EQH       0.016700
     41 H231         1.4010    -2.0040    -5.3140 hc         1 EQH      -0.001800
     42 H232        -0.0060    -1.2940    -4.5030 hc         1 EQH      -0.001800
     43 H11          4.7420    -2.1630    -1.6220 hc         1 EQH       0.069700
     44 H09          8.4220    -1.1910    -1.1850 ha         1 EQH       0.125000
@<TRIPOS>BOND
     1     1     2 1   
     2     1    25 1   
     3     1    26 1   
     4     2     3 ar  
     5     2    15 ar  
     6     3     4 ar  
     7     4     5 ar  
     8     4    27 1   
     9     5     6 1   
    10     5    14 ar  
    11     6     7 1   
    12     6    10 2   
    13     7     8 1   
    14     8     9 2   
    15     8    28 1   
    16     9    10 1   
    17     9    44 1   
    18    10    11 1   
    19    11    12 1   
    20    11    13 1   
    21    11    43 1   
    22    12    13 1   
    23    12    29 1   
    24    12    30 1   
    25    13    31 1   
    26    13    32 1   
    27    14    15 ar  
    28    15    16 1   
    29    16    17 1   
    30    16    24 1   
    31    16    33 1   
    32    17    18 1   
    33    17    34 1   
    34    17    35 1   
    35    18    19 1   
    36    18    38 1   
    37    18    39 1   
    38    19    20 1   
    39    19    23 1   
    40    19    40 1   
    41    20    21 1   
    42    20    22 1   
    43    23    24 1   
    44    23    41 1   
    45    23    42 1   
    46    24    36 1   
    47    24    37 1   
@<TRIPOS>SUBSTRUCTURE
     1 EQH         1 TEMP              0 ****  ****    0 ROOT
