@<TRIPOS>MOLECULE
molecule
   44    47     1     0     0
SMALL
bcc


@<TRIPOS>ATOM
      1 N01          0.0000     0.0000     0.0000 nv         1 EQH      -1.041500
      2 C02          1.3910     0.0000     0.0000 ca         1 EQH       0.550900
      3 N03          2.0530     0.0000     1.1520 nb         1 EQH      -0.716000
      4 C04          3.3730    -0.0010     1.1530 ca         1 EQH       0.309900
      5 C05          4.0720    -0.0010    -0.0550 ca         1 EQH       0.350500
      6 C06          5.5500    -0.0020    -0.0540 cc         1 EQH      -0.066600
      7 S07          6.5660     1.0410     0.9340 ss         1 EQH      -0.183800
      8 C08          8.0180     0.3210     0.2520 cc         1 EQH      -0.083100
      9 C09          7.6830    -0.6180    -0.6380 cd         1 EQH      -0.146000
     10 C10          6.3280    -0.8040    -0.8080 cd         1 EQH      -0.032300
     11 C11          5.7610    -1.8230    -1.7630 cx         1 EQH      -0.070400
     12 C12          6.2160    -1.7530    -3.2220 cx         1 EQH      -0.128900
     13 C13          6.7170    -2.8810    -2.3180 cx         1 EQH      -0.128900
     14 N14          3.4060     0.0000    -1.2080 nb         1 EQH      -0.594000
     15 C15          2.0870    -0.0050    -1.2070 ca         1 EQH       0.313300
     16 C16          1.3320    -0.0120    -2.5110 c3         1 EQH      -0.109000
     17 C17          1.5730     1.3080    -3.2460 c3         1 EQH      -0.073400
     18 C18          0.8070     1.3020    -4.5700 c3         1 EQH      -0.051900
     19 C19          1.2950     0.1380    -5.4360 c3         1 EQH      -0.173700
     20 C20          2.7690     0.2990    -5.7090 c          1 EQH       0.896600
     21 O21          3.3670     1.2460    -5.2570 o          1 EQH      -0.849800
     22 O22          3.4160    -0.6120    -6.4530 o          1 EQH      -0.849800
     23 C23          1.0530    -1.1820    -4.7010 c3         1 EQH      -0.051900
     24 C24          1.8200    -1.1750    -3.3770 c3         1 EQH      -0.073400
     25 H011        -0.5000    -0.6810    -0.5370 hn         1 EQH       0.433300
     26 H012        -0.5000     0.6330     0.5920 hn         1 EQH       0.433300
     27 H04          3.9140    -0.0010     2.0920 h4         1 EQH       0.021100
     28 H08          9.0320     0.5980     0.5150 h4         1 EQH       0.160000
     29 H121         5.4740    -2.0390    -3.9580 hc         1 EQH       0.078450
     30 H122         6.9400    -0.9810    -3.4500 hc         1 EQH       0.078450
     31 H131         7.7470    -2.7970    -1.9920 hc         1 EQH       0.078450
     32 H132         6.2810    -3.8560    -2.5010 hc         1 EQH       0.078450
     33 H16          0.2720    -0.1270    -2.3190 hc         1 EQH       0.034700
     34 H171         2.6320     1.4210    -3.4440 hc         1 EQH       0.057950
     35 H172         1.2250     2.1300    -2.6330 hc         1 EQH       0.057950
     36 H241         2.8780    -1.0570    -3.5740 hc         1 EQH       0.057950
     37 H242         1.6460    -2.1090    -2.8560 hc         1 EQH       0.057950
     38 H181        -0.2510     1.1850    -4.3730 hc         1 EQH       0.022700
     39 H182         0.9820     2.2360    -5.0910 hc         1 EQH       0.022700
     40 H19          0.7490     0.1340    -6.3710 hc         1 EQH       0.037700
     41 H231         1.4010    -2.0040    -5.3140 hc         1 EQH       0.022700
     42 H232        -0.0060    -1.2940    -4.5030 hc         1 EQH       0.022700
     43 H11          4.7420    -2.1630    -1.6220 hc         1 EQH       0.096700
     44 H09          8.4220    -1.1910    -1.1850 ha         1 EQH       0.148000
@<TRIPOS>BOND
     1     1     2 1
     2     2     3 ar
     3     2    15 ar
     4     3     4 ar
     5     4     5 ar
     6     5     6 1
     7     5    14 ar
     8     6     7 1
     9     6    10 2
    10     7     8 1
    11     8     9 2
    12     9    10 1
    13    10    11 1
    14    11    12 1
    15    11    13 1
    16    12    13 1
    17    14    15 ar
    18    15    16 1
    19    16    17 1
    20    16    24 1
    21    17    18 1
    22    18    19 1
    23    19    20 1
    24    19    23 1
    25    20    21 1
    26    20    22 1
    27    23    24 1
    28     1    25 1
    29     1    26 1
    30     4    27 1
    31     8    28 1
    32    12    29 1
    33    12    30 1
    34    13    31 1
    35    13    32 1
    36    16    33 1
    37    17    34 1
    38    17    35 1
    39    24    36 1
    40    24    37 1
    41    18    38 1
    42    18    39 1
    43    19    40 1
    44    23    41 1
    45    23    42 1
    46    11    43 1
    47     9    44 1
@<TRIPOS>SUBSTRUCTURE
     1 EQH         1 TEMP              0 ****  ****    0 ROOT
