@<TRIPOS>MOLECULE
EQI
   40    43     1     0     0
SMALL
bcc


@<TRIPOS>ATOM
      1 C1         -0.1060    0.1350    0.0090 ca        1 EQI      0.126100
      2 C2          1.2800   -0.0280   -0.0470 ca        1 EQI     -0.218000
      3 C3          2.0240   -0.1010    1.1380 ca        1 EQI     -0.028300
      4 C4          1.3760   -0.0220    2.3780 ca        1 EQI     -0.101300
      5 C5         -0.0160    0.1600    2.4110 ca        1 EQI     -0.095000
      6 C6         -0.7660    0.2360    1.2470 ca        1 EQI     -0.156000
      7 C10         3.5010   -0.2470    1.0180 c3        1 EQI     -0.002900
      8 C11         4.2150   -0.3050    2.3120 c2        1 EQI     -0.165200
      9 C12         3.6070   -0.2510    3.5000 c2        1 EQI     -0.091400
     10 C13         2.1230   -0.0860    3.6730 c3        1 EQI      0.024800
     11 C16         4.2950   -0.3300    4.8120 c3        1 EQI     -0.031500
     12 C17         3.7920   -1.5750    5.5880 c3        1 EQI     -0.149000
     13 C18         2.3170   -1.3700    5.8790 c3        1 EQI     -0.058400
     14 C19         1.5430   -1.1740    4.5850 c3        1 EQI     -0.070400
     15 C24         5.8140   -0.4040    4.9290 c3        1 EQI     -0.071400
     16 C25         6.0510   -0.9640    6.3350 c3        1 EQI     -0.189400
     17 C26         4.7450   -1.5990    6.7750 c         1 EQI      0.577100
     18 C27         4.0110   -2.8730    4.8210 c3        1 EQI     -0.082100
     19 O1         -0.8950    0.2110   -1.1160 oh        1 EQI     -0.497100
     20 O26         4.5160   -2.0550    7.8910 o         1 EQI     -0.518100
     21 H2          1.7920   -0.0960   -1.0180 ha        1 EQI      0.133000
     22 H5         -0.5280    0.2490    3.3820 ha        1 EQI      0.135000
     23 H6         -1.8550    0.3740    1.2730 ha        1 EQI      0.151000
     24 H10         3.9030    0.6170    0.4170 hc        1 EQI      0.060700
     25 H102        3.7300   -1.1850    0.4350 hc        1 EQI      0.060700
     26 H11         5.3110   -0.4020    2.2360 ha        1 EQI      0.126000
     27 H131        1.9680    0.9090    4.1940 hc        1 EQI      0.061700
     28 H16         3.9750    0.5860    5.3980 hc        1 EQI      0.058700
     29 H181        1.9100   -2.2570    6.4290 hc        1 EQI      0.052200
     30 H182        2.1880   -0.4740    6.5420 hc        1 EQI      0.052200
     31 H191        1.5100   -2.1430    4.0210 hc        1 EQI      0.048200
     32 H192        0.4860   -0.9040    4.8430 hc        1 EQI      0.048200
     33 H241        6.2450   -1.0860    4.1550 hc        1 EQI      0.051200
     34 H242        6.2820    0.6010    4.8050 hc        1 EQI      0.051200
     35 H251        6.3340   -0.1530    7.0510 hc        1 EQI      0.075200
     36 H252        6.8650   -1.7300    6.3400 hc        1 EQI      0.075200
     37 H271        3.5420   -3.7230    5.3740 hc        1 EQI      0.045367
     38 H272        3.5560   -2.8060    3.8040 hc        1 EQI      0.045367
     39 H273        5.1030   -3.0790    4.7040 hc        1 EQI      0.045367
     40 HO1        -0.3180    0.1310   -1.8900 ho        1 EQI      0.418000
@<TRIPOS>BOND
     1    1    2 ar  
     2    1    6 ar  
     3    1   19 1   
     4    2    3 ar  
     5    2   21 1   
     6    3    4 ar  
     7    3    7 1   
     8    4    5 ar  
     9    4   10 1   
    10    5    6 ar  
    11    5   22 1   
    12    6   23 1   
    13    7    8 1   
    14    7   24 1   
    15    7   25 1   
    16    8    9 2   
    17    8   26 1   
    18    9   10 1   
    19    9   11 1   
    20   10   14 1   
    21   10   27 1   
    22   11   12 1   
    23   11   15 1   
    24   11   28 1   
    25   12   13 1   
    26   12   17 1   
    27   12   18 1   
    28   13   14 1   
    29   13   29 1   
    30   13   30 1   
    31   14   31 1   
    32   14   32 1   
    33   15   16 1   
    34   15   33 1   
    35   15   34 1   
    36   16   17 1   
    37   16   35 1   
    38   16   36 1   
    39   17   20 2   
    40   18   37 1   
    41   18   38 1   
    42   18   39 1   
    43   19   40 1   
@<TRIPOS>SUBSTRUCTURE
     1 EQI         1 TEMP              0 ****  ****    0 ROOT
