@<TRIPOS>MOLECULE
molecule
   40    43     1     0     0
SMALL
bcc


@<TRIPOS>ATOM
      1 C1           0.0000     0.0000     0.0000 ca         1 EQI       0.105100
      2 C2           1.3840     0.0000     0.0000 ca         1 EQI      -0.154000
      3 C3           2.0910     0.0000     1.1940 ca         1 EQI      -0.057300
      4 C4           1.4280    -0.0120     2.3830 ca         1 EQI      -0.076300
      5 C5           0.0210     0.0030     2.3910 ca         1 EQI      -0.116000
      6 C6          -0.6840    -0.0000     1.2080 ca         1 EQI      -0.152000
      7 C10          3.5910    -0.0030     1.1220 c3         1 EQI       0.006100
      8 C11          4.2300    -0.0990     2.4630 c2         1 EQI      -0.173200
      9 C12          3.6040    -0.1020     3.5920 c2         1 EQI      -0.096400
     10 C13          2.1090     0.0110     3.7180 c3         1 EQI       0.020800
     11 C16          4.3440    -0.1990     4.9170 c3         1 EQI      -0.031500
     12 C17          3.7560    -1.4610     5.6070 c3         1 EQI      -0.179000
     13 C18          2.3140    -1.1760     5.9490 c3         1 EQI      -0.054400
     14 C19          1.5360    -1.0750     4.6250 c3         1 EQI      -0.073400
     15 C24          5.8250    -0.5830     4.8360 c3         1 EQI      -0.077400
     16 C25          6.0770    -1.2340     6.2260 c3         1 EQI      -0.192400
     17 C26          4.7270    -1.7130     6.7160 c          1 EQI       0.591100
     18 C27          3.8120    -2.6320     4.6230 c3         1 EQI      -0.080100
     19 O1          -0.6850    -0.0020    -1.1740 oh         1 EQI      -0.521100
     20 O26          4.4730    -2.2070     7.7880 o          1 EQI      -0.507100
     21 H2           1.9200     0.0000    -0.9410 ha         1 EQI       0.139000
     22 H5          -0.5110     0.0020     3.3350 ha         1 EQI       0.135000
     23 H6          -1.7670    -0.0000     1.2200 ha         1 EQI       0.141000
     24 H10          3.9180     0.9140     0.6460 hc         1 EQI       0.060700
     25 H102         3.9090    -0.8470     0.5230 hc         1 EQI       0.060700
     26 H11          5.3100    -0.1720     2.4950 ha         1 EQI       0.124000
     27 H131         1.8930     0.9680     4.1780 hc         1 EQI       0.063700
     28 H16          4.1940     0.6850     5.5250 hc         1 EQI       0.072700
     29 H181         2.2430    -0.2400     6.4880 hc         1 EQI       0.053700
     30 H182         1.9130    -1.9840     6.5480 hc         1 EQI       0.053700
     31 H191         0.5000    -0.8420     4.8420 hc         1 EQI       0.050700
     32 H192         1.5890    -2.0270     4.1110 hc         1 EQI       0.050700
     33 H241         5.9930    -1.2990     4.0410 hc         1 EQI       0.054700
     34 H242         6.4420     0.2980     4.7080 hc         1 EQI       0.054700
     35 H251         6.7550    -2.0730     6.1250 hc         1 EQI       0.073700
     36 H252         6.4820    -0.5000     6.9120 hc         1 EQI       0.073700
     37 H271         4.7760    -3.1210     4.6970 hc         1 EQI       0.046033
     38 H272         3.6710    -2.2630     3.6140 hc         1 EQI       0.046033
     39 H273         3.0280    -3.3410     4.8610 hc         1 EQI       0.046033
     40 HO1         -0.8360     0.8870    -1.4510 ho         1 EQI       0.418000
@<TRIPOS>BOND
     1     1     2 ar
     2     1     6 ar
     3     1    19 1
     4     2     3 ar
     5     2    21 1
     6     3     4 ar
     7     3     7 1
     8     4     5 ar
     9     4    10 1
    10     5     6 ar
    11     5    22 1
    12     6    23 1
    13     7     8 1
    14     7    24 1
    15     7    25 1
    16     8     9 2
    17     8    26 1
    18     9    10 1
    19     9    11 1
    20    10    14 1
    21    10    27 1
    22    11    12 1
    23    11    15 1
    24    11    28 1
    25    12    13 1
    26    12    17 1
    27    12    18 1
    28    13    14 1
    29    13    29 1
    30    13    30 1
    31    14    31 1
    32    14    32 1
    33    15    16 1
    34    15    33 1
    35    15    34 1
    36    16    17 1
    37    16    35 1
    38    16    36 1
    39    17    20 2
    40    18    37 1
    41    18    38 1
    42    18    39 1
    43    19    40 1
@<TRIPOS>SUBSTRUCTURE
     1 EQI         1 TEMP              0 ****  ****    0 ROOT
