@<TRIPOS>MOLECULE
molecule
   47    47     1     0     0
SMALL
bcc


@<TRIPOS>ATOM
      1 C01          0.0000     0.0000     0.0000 c3         1 EQJ      -0.128400
      2 C02          1.5070     0.0000     0.0000 ca         1 EQJ       0.332600
      3 C04          3.4750    -0.0040    -1.2030 ca         1 EQJ       0.422200
      4 C05          4.2390     0.0020    -0.0550 ca         1 EQJ      -0.157600
      5 C06          5.7430     0.0040    -0.1380 c3         1 EQJ       0.254700
      6 C12          3.5960     0.0010     1.1880 ca         1 EQJ      -0.126900
      7 C13          4.3720     0.0010     2.4450 ce         1 EQJ       0.422800
      8 C15          4.5300     0.0000     4.8290 c3         1 EQJ       0.009500
      9 C16          4.1820     1.2490     5.6430 c3         1 EQJ      -0.041400
     10 C17          4.6410     2.4950     4.8840 c3         1 EQJ      -0.114400
     11 C18          4.2960     3.7440     5.6980 c3         1 EQJ       0.232800
     12 C20          4.5290     6.1850     5.5100 c2         1 EQJ       0.689100
     13 C23          4.1890    -1.2310     5.6290 c          1 EQJ       0.904600
     14 C26          2.1920     0.0000     1.2070 ca         1 EQJ       0.010800
     15 N03          2.1570    -0.0040    -1.1450 nb         1 EQJ      -0.707000
     16 N14          3.7590    -0.0010     3.5830 n2         1 EQJ      -0.539900
     17 N19          4.7350     4.9380     4.9710 nu         1 EQJ      -0.844200
     18 N21          3.9430     6.3070     6.6680 n2         1 EQJ      -0.865100
     19 N22          4.9410     7.3060     4.8280 nz         1 EQJ      -0.812600
     20 O07          6.1450    -0.0020    -1.5090 os         1 EQJ      -0.589200
     21 O09          8.3840     1.3760    -1.5170 o          1 EQJ      -0.803833
     22 O10          8.3910    -1.1410    -1.3410 o          1 EQJ      -0.803833
     23 O11          7.7690    -0.1420    -3.5720 o          1 EQJ      -0.803833
     24 O24          4.7790    -1.4440     6.8170 o          1 EQJ      -0.836300
     25 O25          3.3870    -2.0270     5.2030 o          1 EQJ      -0.836300
     26 O27          1.5170     0.0010     2.3840 oh         1 EQJ      -0.493100
     27 P08          7.6880    -0.0020    -1.9710 p5         1 EQJ       1.202900
     28 H011        -0.3610     0.8030     0.6310 hc         1 EQJ       0.033700
     29 H012        -0.3610    -0.9480     0.3800 hc         1 EQJ       0.033700
     30 H013        -0.3610     0.1450    -1.0110 hc         1 EQJ       0.033700
     31 H041         3.9660    -0.0080    -2.1690 h4         1 EQJ       0.068100
     32 H062         6.1310     0.8910     0.3490 h1         1 EQJ       0.038700
     33 H061         6.1330    -0.8780     0.3560 h1         1 EQJ       0.038700
     34 H131         5.4550     0.0030     2.4130 h4         1 EQJ      -0.016200
     35 H151         5.5880     0.0010     4.6000 h1         1 EQJ       0.030700
     36 H161         3.1110     1.2940     5.7970 hc         1 EQJ       0.056700
     37 H162         4.6830     1.2060     6.6030 hc         1 EQJ       0.056700
     38 H172         4.1400     2.5390     3.9250 hc         1 EQJ       0.054200
     39 H171         5.7130     2.4500     4.7300 hc         1 EQJ       0.054200
     40 H181         4.7970     3.7010     6.6570 h1         1 EQJ       0.059700
     41 H182         3.2250     3.7900     5.8520 h1         1 EQJ       0.059700
     42 H191         5.1650     4.8470     4.0720 hn         1 EQJ       0.453800
     43 H211         3.7930     7.2160     7.0600 hn         1 EQJ       0.399400
     44 H221         5.7240     7.0760     4.2490 hn         1 EQJ       0.384800
     45 H1           5.2060     8.0160     5.4820 hn         1 EQJ       0.384800
     46 H271         1.0840    -0.8290     2.4990 ho         1 EQJ       0.416000
     47 H223         4.1910     7.6430     4.2570 hn         1 EQJ       0.384800
@<TRIPOS>BOND
     1    18    12 2
     2    17    12 1
     3    17    11 1
     4    12    19 1
     5    24    13 1
     6    25    13 1
     7    10    11 1
     8    10     9 1
     9    13     8 1
    10     9     8 1
    11    26    14 1
    12     8    16 1
    13     7    16 2
    14     7     6 1
    15    14     6 ar
    16    14     2 ar
    17     6     4 ar
    18     1     2 1
    19     2    15 ar
    20     4     5 1
    21     4     3 ar
    22    15     3 ar
    23     5    20 1
    24    22    27 1
    25    20    27 1
    26    23    27 1
    27    27    21 1
    28     1    28 1
    29     1    29 1
    30     1    30 1
    31     3    31 1
    32     5    32 1
    33     5    33 1
    34     7    34 1
    35     8    35 1
    36     9    36 1
    37     9    37 1
    38    10    38 1
    39    10    39 1
    40    11    40 1
    41    11    41 1
    42    17    42 1
    43    18    43 1
    44    19    44 1
    45    19    45 1
    46    26    46 1
    47    47    19 1
@<TRIPOS>SUBSTRUCTURE
     1 EQJ         1 TEMP              0 ****  ****    0 ROOT
