@<TRIPOS>MOLECULE
molecule
  100   101     1     0     0
SMALL
bcc


@<TRIPOS>ATOM
      1 Br           0.0000     0.0000     0.0000 br         1 EQM      -0.097100
      2 C1          10.5100    -4.3810    -0.7850 c3         1 EQM       0.092800
      3 N1          12.6690    -5.5780    -0.6360 ns         1 EQM      -0.551900
      4 O1          10.0950    -5.2020     0.3080 oh         1 EQM      -0.595800
      5 C2          12.0110    -4.4360    -0.9130 c          1 EQM       0.636100
      6 N2           6.6530    -1.3850    -0.0000 n3         1 EQM      -0.434600
      7 O2          12.6260    -3.4510    -1.2630 o          1 EQM      -0.625100
      8 C3          14.1290    -5.6320    -0.7600 c3         1 EQM       0.053700
      9 N3           6.3090    -2.0260     1.1540 ns         1 EQM      -0.459300
     10 C4          14.7690    -5.1230     0.5340 c3         1 EQM      -0.080000
     11 N4           3.8290    -4.5310     2.1230 ns         1 EQM      -0.553900
     12 O4           3.1650    -4.3340     4.2340 o          1 EQM      -0.625000
     13 C5          14.3800    -6.0440     1.6910 c3         1 EQM      -0.085100
     14 O5           1.8310    -5.4740     2.8750 os         1 EQM      -0.435900
     15 C6          16.2910    -5.1110     0.3790 c3         1 EQM      -0.085100
     16 C7          10.0730    -2.9370    -0.5330 c3         1 EQM      -0.099400
     17 C9           8.1060    -1.4290    -0.2140 c3         1 EQM       0.144800
     18 C11          4.6560     0.0000     0.0000 ca         1 EQM      -0.070300
     19 C12          5.5240    -3.1210     1.1100 c          1 EQM       0.672100
     20 C13          5.0450    -3.7580     2.3890 c3         1 EQM       0.076700
     21 C14          6.1320    -4.6890     2.9320 c3         1 EQM      -0.080000
     22 C15          6.4560    -5.7600     1.8880 c3         1 EQM      -0.088433
     23 C16          7.3910    -3.8780     3.2390 c3         1 EQM      -0.088433
     24 C17          5.6330    -5.3610     4.2130 c3         1 EQM      -0.088433
     25 C19          0.9290    -5.6870     3.9920 c3         1 EQM       0.158700
     26 C20          3.9650     0.0000     1.1980 ca         1 EQM      -0.109500
     27 C21          2.5840    -0.0000     1.1980 ca         1 EQM      -0.101500
     28 C22          1.8920     0.0010     0.0000 ca         1 EQM      -0.012900
     29 C23          2.5830     0.0010    -1.1970 ca         1 EQM      -0.101500
     30 C24          3.9650     0.0060    -1.1980 ca         1 EQM      -0.109500
     31 C25          9.8710    -4.8900    -2.0780 c3         1 EQM      -0.019100
     32 C26         10.3220    -6.3030    -2.3400 ca         1 EQM      -0.101300
     33 C27          9.6730    -7.3610    -1.7300 ca         1 EQM      -0.113500
     34 C28         10.0870    -8.6570    -1.9700 ca         1 EQM      -0.129000
     35 C29         11.1500    -8.8980    -2.8200 ca         1 EQM      -0.114000
     36 C30         11.7990    -7.8400    -3.4310 ca         1 EQM      -0.129000
     37 C31         11.3820    -6.5440    -3.1940 ca         1 EQM      -0.113500
     38 C33         18.4060    -9.4170    -2.2240 c2         1 EQM      -0.194000
     39 C34         14.5600    -7.0540    -1.0080 c          1 EQM       0.654100
     40 C35         14.2750    -3.7040     0.8230 c3         1 EQM      -0.085100
     41 C36         17.4230    -8.6840    -2.6850 c2         1 EQM      -0.206200
     42 C37         16.0910    -8.6820    -1.9790 c3         1 EQM       0.146200
     43 HN1         12.1660    -6.3780    -0.3080 hn         1 EQM       0.353500
     44 HO1         10.4650    -4.8700     1.1090 ho         1 EQM       0.406000
     45 H3          14.4440    -5.0090    -1.5880 h1         1 EQM       0.084700
     46 HN3          6.6040    -1.6590     2.0370 hn         1 EQM       0.298500
     47 HN4          3.6280    -4.8440     1.1940 hn         1 EQM       0.349500
     48 H5          14.7810    -7.0350     1.5140 hc         1 EQM       0.040478
     49 H5A         13.3010    -6.0990     1.7630 hc         1 EQM       0.040478
     50 H5B         14.7840    -5.6520     2.6170 hc         1 EQM       0.040478
     51 HN5         16.3050    -6.5460    -1.9380 hn         1 EQM       0.318500
     52 H6          16.5510    -4.7350    -0.6030 hc         1 EQM       0.040478
     53 H6A         16.6730    -6.1180     0.4930 hc         1 EQM       0.040478
     54 H6B         16.7260    -4.4720     1.1370 hc         1 EQM       0.040478
     55 H7          10.3920    -2.3140    -1.3600 hc         1 EQM       0.059200
     56 H7A         10.5230    -2.5780     0.3840 hc         1 EQM       0.059200
     57 H8           8.2330    -3.4730     0.4400 hc         1 EQM       0.065200
     58 H8A          8.0980    -3.2760    -1.3130 hc         1 EQM       0.065200
     59 H9           8.3590    -0.8520    -1.0950 h1         1 EQM       0.040200
     60 H9A          8.6110    -1.0120     0.6490 h1         1 EQM       0.040200
     61 H10          6.5240     0.5120     0.8840 h1         1 EQM       0.048700
     62 H10A         6.5240     0.5110    -0.8850 h1         1 EQM       0.048700
     63 H13          4.8320    -2.9870     3.1190 h1         1 EQM       0.084700
     64 H15          5.5990    -6.4110     1.7610 hc         1 EQM       0.042478
     65 H15A         7.3060    -6.3430     2.2210 hc         1 EQM       0.042478
     66 H15B         6.6920    -5.2840     0.9440 hc         1 EQM       0.042478
     67 H16          7.8900    -3.6210     2.3120 hc         1 EQM       0.042478
     68 H16A         8.0590    -4.4670     3.8560 hc         1 EQM       0.042478
     69 H16B         7.1180    -2.9720     3.7650 hc         1 EQM       0.042478
     70 H17          4.8550    -6.0740     3.9680 hc         1 EQM       0.042478
     71 H17A         5.2350    -4.6080     4.8840 hc         1 EQM       0.042478
     72 H17B         6.4550    -5.8750     4.6950 hc         1 EQM       0.042478
     73 H19          0.0510    -6.2210     3.6510 h1         1 EQM       0.049367
     74 H19A         1.4310    -6.2690     4.7560 h1         1 EQM       0.049367
     75 H19B         0.6320    -4.7300     4.4040 h1         1 EQM       0.049367
     76 H20          4.5070    -0.0010     2.1360 ha         1 EQM       0.135500
     77 H21          2.0420    -0.0000     2.1370 ha         1 EQM       0.145000
     78 H23          2.0410     0.0050    -2.1350 ha         1 EQM       0.145000
     79 H24          4.5070     0.0060    -2.1360 ha         1 EQM       0.135500
     80 H25          8.7920    -4.8670    -1.9810 hc         1 EQM       0.071700
     81 H25A        10.1710    -4.2560    -2.9040 hc         1 EQM       0.071700
     82 H27          8.8400    -7.1730    -1.0630 ha         1 EQM       0.134000
     83 H28          9.5780    -9.4850    -1.4910 ha         1 EQM       0.127500
     84 H29         11.4760    -9.9140    -3.0070 ha         1 EQM       0.128000
     85 H30         12.6310    -8.0280    -4.0990 ha         1 EQM       0.127500
     86 H31         11.8910    -5.7160    -3.6730 ha         1 EQM       0.134000
     87 H33         19.3640    -9.4190    -2.7310 ha         1 EQM       0.117500
     88 H33A        18.2620   -10.0210    -1.3360 ha         1 EQM       0.117500
     89 H35         13.2360    -3.7390     1.1290 hc         1 EQM       0.040478
     90 H35A        14.3670    -3.1000    -0.0710 hc         1 EQM       0.040478
     91 H35B        14.8710    -3.2690     1.6160 hc         1 EQM       0.040478
     92 H36         17.5670    -8.0810    -3.5720 ha         1 EQM       0.127000
     93 H37         15.3370    -9.1120    -2.6280 h1         1 EQM       0.058200
     94 H37A        16.1620    -9.2690    -1.0710 h1         1 EQM       0.058200
     95 C10          6.1630     0.0010    -0.0000 c3         1 EQM       0.188100
     96 C18          2.9500    -4.7650     3.1180 c          1 EQM       0.752100
     97 O3           5.2040    -3.5940     0.0400 o          1 EQM      -0.573100
     98 C8           8.5480    -2.8810    -0.4100 c3         1 EQM      -0.081400
     99 N5          15.7210    -7.3050    -1.6460 ns         1 EQM      -0.581900
    100 O6          13.8630    -7.9740    -0.6330 o          1 EQM      -0.606100
@<TRIPOS>BOND
     1     1    28 1
     2     2     4 1
     3     2     5 1
     4     2    16 1
     5     2    31 1
     6     3     5 1
     7     3     8 1
     8     5     7 2
     9     6     9 1
    10     6    17 1
    11     6    95 1
    12     8    10 1
    13     8    39 1
    14     9    19 1
    15    97    19 2
    16    10    13 1
    17    10    15 1
    18    10    40 1
    19    11    20 1
    20    11    96 1
    21    12    96 2
    22    99    39 1
    23    99    42 1
    24    14    96 1
    25    14    25 1
    26   100    39 2
    27    16    98 1
    28    98    17 1
    29    95    18 1
    30    18    26 ar
    31    18    30 ar
    32    19    20 1
    33    20    21 1
    34    21    22 1
    35    21    23 1
    36    21    24 1
    37    26    27 ar
    38    27    28 ar
    39    28    29 ar
    40    29    30 ar
    41    31    32 1
    42    32    33 ar
    43    32    37 ar
    44    33    34 ar
    45    34    35 ar
    46    35    36 ar
    47    36    37 ar
    48    38    41 2
    49    41    42 1
    50     3    43 1
    51     4    44 1
    52     8    45 1
    53     9    46 1
    54    11    47 1
    55    13    48 1
    56    13    49 1
    57    13    50 1
    58    99    51 1
    59    15    52 1
    60    15    53 1
    61    15    54 1
    62    16    55 1
    63    16    56 1
    64    98    57 1
    65    98    58 1
    66    17    59 1
    67    17    60 1
    68    95    61 1
    69    95    62 1
    70    20    63 1
    71    22    64 1
    72    22    65 1
    73    22    66 1
    74    23    67 1
    75    23    68 1
    76    23    69 1
    77    24    70 1
    78    24    71 1
    79    24    72 1
    80    25    73 1
    81    25    74 1
    82    25    75 1
    83    26    76 1
    84    27    77 1
    85    29    78 1
    86    30    79 1
    87    31    80 1
    88    31    81 1
    89    33    82 1
    90    34    83 1
    91    35    84 1
    92    36    85 1
    93    37    86 1
    94    38    87 1
    95    38    88 1
    96    40    89 1
    97    40    90 1
    98    40    91 1
    99    41    92 1
   100    42    93 1
   101    42    94 1
@<TRIPOS>SUBSTRUCTURE
     1 EQM         1 TEMP              0 ****  ****    0 ROOT
