@<TRIPOS>MOLECULE
EQM
  100   101     1     0     0
SMALL
bcc


@<TRIPOS>ATOM
      1 Br           0.0000     0.0000     0.0000 br         1 EQM      -0.130100
      2 C1          10.5100    -4.3810    -0.7850 c3         1 EQM       0.107800
      3 N1          12.6690    -5.5780    -0.6360 ns         1 EQM      -0.157900
      4 O1          10.0950    -5.2020     0.3080 oh         1 EQM      -0.580800
      5 C2          12.0110    -4.4360    -0.9130 c          1 EQM       0.543100
      6 N2           6.6530    -1.3850    -0.0000 n3         1 EQM      -0.357600
      7 O2          12.6260    -3.4510    -1.2630 o          1 EQM      -0.663100
      8 C3          14.1290    -5.6320    -0.7600 c3         1 EQM      -0.049300
      9 N3           6.3090    -2.0260     1.1540 ns         1 EQM      -0.135300
     10 C4          14.7690    -5.1230     0.5340 c3         1 EQM      -0.076000
     11 N4           3.8290    -4.5310     2.1230 ns         1 EQM      -0.147900
     12 O4           3.1650    -4.3340     4.2340 o          1 EQM      -0.674000
     13 C5          14.3800    -6.0440     1.6910 c3         1 EQM      -0.008100
     14 O5           1.8310    -5.4740     2.8750 os         1 EQM      -0.420900
     15 C6          16.2910    -5.1110     0.3790 c3         1 EQM      -0.008100
     16 C7          10.0730    -2.9370    -0.5330 c3         1 EQM      -0.048400
     17 C9           8.1060    -1.4290    -0.2140 c3         1 EQM       0.140800
     18 C11          4.6560     0.0000     0.0000 ca         1 EQM      -0.093300
     19 C12          5.5240    -3.1210     1.1100 c          1 EQM       0.587100
     20 C13          5.0450    -3.7580     2.3890 c3         1 EQM      -0.036300
     21 C14          6.1320    -4.6890     2.9320 c3         1 EQM      -0.075000
     22 C15          6.4560    -5.7600     1.8880 c3         1 EQM      -0.013433
     23 C16          7.3910    -3.8780     3.2390 c3         1 EQM      -0.013433
     24 C17          5.6330    -5.3610     4.2130 c3         1 EQM      -0.013433
     25 C19          0.9290    -5.6870     3.9920 c3         1 EQM       0.270700
     26 C20          3.9650     0.0000     1.1980 ca         1 EQM      -0.081000
     27 C21          2.5840    -0.0000     1.1980 ca         1 EQM      -0.080000
     28 C22          1.8920     0.0010     0.0000 ca         1 EQM       0.040100
     29 C23          2.5830     0.0010    -1.1970 ca         1 EQM      -0.080000
     30 C24          3.9650     0.0060    -1.1980 ca         1 EQM      -0.081000
     31 C25          9.8710    -4.8900    -2.0780 c3         1 EQM       0.029900
     32 C26         10.3220    -6.3030    -2.3400 ca         1 EQM      -0.108300
     33 C27          9.6730    -7.3610    -1.7300 ca         1 EQM      -0.094000
     34 C28         10.0870    -8.6570    -1.9700 ca         1 EQM      -0.100500
     35 C29         11.1500    -8.8980    -2.8200 ca         1 EQM      -0.086000
     36 C30         11.7990    -7.8400    -3.4310 ca         1 EQM      -0.100500
     37 C31         11.3820    -6.5440    -3.1940 ca         1 EQM      -0.094000
     38 C33         18.4060    -9.4170    -2.2240 c2         1 EQM      -0.128000
     39 C34         14.5600    -7.0540    -1.0080 c          1 EQM       0.569100
     40 C35         14.2750    -3.7040     0.8230 c3         1 EQM      -0.008100
     41 C36         17.4230    -8.6850    -2.6850 c2         1 EQM      -0.191200
     42 C37         16.0910    -8.6820    -1.9790 c3         1 EQM       0.093200
     43 HN1         12.1670    -6.3760    -0.3000 hn         1 EQM       0.219500
     44 HO1         10.4940    -4.8920     1.1030 ho         1 EQM       0.394000
     45 H3          14.4440    -5.0090    -1.5880 h1         1 EQM       0.063700
     46 HN3          6.6140    -1.6660     2.0360 hn         1 EQM       0.168500
     47 HN4          3.6260    -4.8400     1.1930 hn         1 EQM       0.203500
     48 H5          14.8080    -5.6670     2.6130 hc         1 EQM       0.013144
     49 H5A         14.7570    -7.0420     1.5000 hc         1 EQM       0.013144
     50 H5B         13.3010    -6.0760     1.7810 hc         1 EQM       0.013144
     51 HN5         16.3040    -6.5460    -1.9380 hn         1 EQM       0.183500
     52 H6          16.6740    -6.1170     0.5000 hc         1 EQM       0.013144
     53 H6A         16.5510    -4.7420    -0.6060 hc         1 EQM       0.013144
     54 H6B         16.7260    -4.4660     1.1330 hc         1 EQM       0.013144
     55 H7          10.5230    -2.5780     0.3840 hc         1 EQM       0.032200
     56 H7A         10.3920    -2.3140    -1.3600 hc         1 EQM       0.032200
     57 H8           8.2330    -3.4730     0.4400 hc         1 EQM       0.041700
     58 H8A          8.0980    -3.2760    -1.3130 hc         1 EQM       0.041700
     59 H9           8.3590    -0.8520    -1.0950 h1         1 EQM       0.014200
     60 H9A          8.6110    -1.0120     0.6490 h1         1 EQM       0.014200
     61 H10          6.5240     0.5110    -0.8850 h1         1 EQM       0.019200
     62 H10A         6.5240     0.5120     0.8840 h1         1 EQM       0.019200
     63 H13          4.8310    -2.9870     3.1190 h1         1 EQM       0.062700
     64 H15          5.5880    -6.3910     1.7370 hc         1 EQM       0.015589
     65 H15A         6.7230    -5.2830     0.9530 hc         1 EQM       0.015589
     66 H15B         7.2850    -6.3640     2.2360 hc         1 EQM       0.015589
     67 H16          7.1160    -2.9610     3.7460 hc         1 EQM       0.015589
     68 H16A         7.9010    -3.6390     2.3130 hc         1 EQM       0.015589
     69 H16B         8.0490    -4.4590     3.8740 hc         1 EQM       0.015589
     70 H17          5.2220    -4.6100     4.8780 hc         1 EQM       0.015589
     71 H17A         4.8650    -6.0840     3.9670 hc         1 EQM       0.015589
     72 H17B         6.4580    -5.8630     4.7030 hc         1 EQM       0.015589
     73 H19          0.4660    -6.6620     3.9020 h1         1 EQM       0.003700
     74 H19A         0.1620    -4.9220     3.9890 h1         1 EQM       0.003700
     75 H19B         1.4850    -5.6360     4.9200 h1         1 EQM       0.003700
     76 H20          4.5070    -0.0010     2.1360 ha         1 EQM       0.108500
     77 H21          2.0420    -0.0000     2.1370 ha         1 EQM       0.118500
     78 H23          2.0410     0.0050    -2.1350 ha         1 EQM       0.118500
     79 H24          4.5070     0.0060    -2.1360 ha         1 EQM       0.108500
     80 H25         10.1710    -4.2560    -2.9040 hc         1 EQM       0.042200
     81 H25A         8.7920    -4.8670    -1.9810 hc         1 EQM       0.042200
     82 H27          8.8400    -7.1730    -1.0630 ha         1 EQM       0.110500
     83 H28          9.5780    -9.4850    -1.4910 ha         1 EQM       0.100500
     84 H29         11.4760    -9.9140    -3.0070 ha         1 EQM       0.101000
     85 H30         12.6310    -8.0280    -4.0990 ha         1 EQM       0.100500
     86 H31         11.8910    -5.7160    -3.6730 ha         1 EQM       0.110500
     87 H33         18.2620   -10.0210    -1.3360 ha         1 EQM       0.087000
     88 H33A        19.3630    -9.4190    -2.7300 ha         1 EQM       0.087000
     89 H35         13.2420    -3.7410     1.1480 hc         1 EQM       0.013144
     90 H35A        14.3490    -3.1060    -0.0770 hc         1 EQM       0.013144
     91 H35B        14.8830    -3.2620     1.6020 hc         1 EQM       0.013144
     92 H36         17.5670    -8.0810    -3.5720 ha         1 EQM       0.106000
     93 H37         15.3370    -9.1120    -2.6280 h1         1 EQM       0.030200
     94 H37A        16.1620    -9.2690    -1.0710 h1         1 EQM       0.030200
     95 C10          6.1630     0.0010    -0.0000 c3         1 EQM       0.197100
     96 C18          2.9500    -4.7650     3.1180 c          1 EQM       0.679100
     97 O3           5.2040    -3.5940     0.0400 o          1 EQM      -0.613100
     98 C8           8.5480    -2.8810    -0.4100 c3         1 EQM      -0.053400
     99 N5          15.7210    -7.3050    -1.6460 ns         1 EQM      -0.191900
    100 O6          13.8630    -7.9740    -0.6330 o          1 EQM      -0.646100
@<TRIPOS>BOND
     1     1    28 1   
     2     2     4 1   
     3     2     5 1   
     4     2    16 1   
     5     2    31 1   
     6     3     5 1   
     7     3     8 1   
     8     3    43 1   
     9     4    44 1   
    10     5     7 2   
    11     6     9 1   
    12     6    17 1   
    13     6    95 1   
    14     8    10 1   
    15     8    39 1   
    16     8    45 1   
    17     9    19 1   
    18     9    46 1   
    19    10    13 1   
    20    10    15 1   
    21    10    40 1   
    22    11    20 1   
    23    11    47 1   
    24    11    96 1   
    25    12    96 2   
    26    13    48 1   
    27    13    49 1   
    28    13    50 1   
    29    14    25 1   
    30    14    96 1   
    31    15    52 1   
    32    15    53 1   
    33    15    54 1   
    34    16    55 1   
    35    16    56 1   
    36    16    98 1   
    37    17    59 1   
    38    17    60 1   
    39    17    98 1   
    40    18    26 ar  
    41    18    30 ar  
    42    18    95 1   
    43    19    20 1   
    44    19    97 2   
    45    20    21 1   
    46    20    63 1   
    47    21    22 1   
    48    21    23 1   
    49    21    24 1   
    50    22    64 1   
    51    22    65 1   
    52    22    66 1   
    53    23    67 1   
    54    23    68 1   
    55    23    69 1   
    56    24    70 1   
    57    24    71 1   
    58    24    72 1   
    59    25    73 1   
    60    25    74 1   
    61    25    75 1   
    62    26    27 ar  
    63    26    76 1   
    64    27    28 ar  
    65    27    77 1   
    66    28    29 ar  
    67    29    30 ar  
    68    29    78 1   
    69    30    79 1   
    70    31    32 1   
    71    31    80 1   
    72    31    81 1   
    73    32    33 ar  
    74    32    37 ar  
    75    33    34 ar  
    76    33    82 1   
    77    34    35 ar  
    78    34    83 1   
    79    35    36 ar  
    80    35    84 1   
    81    36    37 ar  
    82    36    85 1   
    83    37    86 1   
    84    38    41 2   
    85    38    87 1   
    86    38    88 1   
    87    39    99 1   
    88    39   100 2   
    89    40    89 1   
    90    40    90 1   
    91    40    91 1   
    92    41    42 1   
    93    41    92 1   
    94    42    93 1   
    95    42    94 1   
    96    42    99 1   
    97    51    99 1   
    98    57    98 1   
    99    58    98 1   
   100    61    95 1   
   101    62    95 1   
@<TRIPOS>SUBSTRUCTURE
     1 EQM         1 TEMP              0 ****  ****    0 ROOT
