@<TRIPOS>MOLECULE
molecule
   50    52     1     0     0
SMALL
bcc


@<TRIPOS>ATOM
      1 CAA          0.0000     0.0000     0.0000 c3         1 EQN      -0.082600
      2 CAB          0.6300    -2.3730    -0.4440 c3         1 EQN      -0.082600
      3 CAC          3.0390    -1.6050     3.5760 c3         1 EQN      -0.080600
      4 CAD          3.0240     0.8910     3.5500 c3         1 EQN      -0.080600
      5 OAE          9.1600     0.6120    -8.2820 o          1 EQN      -0.837300
      6 OAF          4.1690    -0.7290    -3.4170 o          1 EQN      -0.602100
      7 OAG          7.9980    -1.2210    -8.7490 o          1 EQN      -0.837300
      8 CAH          7.5460     0.9980    -4.4640 ca         1 EQN      -0.157500
      9 CAI          6.2530    -0.9900    -4.9070 ca         1 EQN      -0.157500
     10 CAJ          8.1090     0.9150    -5.7170 ca         1 EQN      -0.095500
     11 CAK          6.8130    -1.0790    -6.1610 ca         1 EQN      -0.095500
     12 CAL          4.9900     0.0000     0.0000 ca         1 EQN      -0.110000
     13 CAM          4.4160     0.0000     1.2510 ca         1 EQN      -0.141000
     14 CAN          2.9030    -0.7620    -0.9290 ca         1 EQN      -0.070000
     15 CAO          0.5470    -1.5210     1.8980 c3         1 EQN      -0.071400
     16 CAP          1.0120    -0.3750     2.8040 c3         1 EQN      -0.070400
     17 NAQ          6.1210    -0.0280    -2.6230 ns         1 EQN      -0.500100
     18 CAR          8.3490    -0.2170    -7.9210 c          1 EQN       0.882200
     19 CAT          6.6160     0.0480    -4.0530 ca         1 EQN       0.017600
     20 CAU          7.7470    -0.1250    -6.5780 ca         1 EQN      -0.104600
     21 CAV          4.2310    -0.3850    -1.1070 ca         1 EQN      -0.139600
     22 CAW          3.0900    -0.3790     1.4250 ca         1 EQN      -0.051300
     23 CAX          2.3340    -0.7550     0.3350 ca         1 EQN      -0.076300
     24 CAY          0.8880    -1.1610     0.4530 c3         1 EQN      -0.016700
     25 CAZ          2.5390    -0.3670     2.8270 c3         1 EQN      -0.019700
     26 HAA         -0.9580    -0.0610     0.5030 hc         1 EQN       0.038367
     27 HAAA         0.4790     0.9390     0.2480 hc         1 EQN       0.038367
     28 HAAB        -0.1500    -0.0570    -1.0710 hc         1 EQN       0.038367
     29 HAB         -0.3230    -2.8180    -0.1840 hc         1 EQN       0.038367
     30 HABA         1.4190    -3.1010    -0.3020 hc         1 EQN       0.038367
     31 HABB         0.6110    -2.0580    -1.4800 hc         1 EQN       0.038367
     32 HAC          3.0850    -2.4460     2.8950 hc         1 EQN       0.036033
     33 HACA         2.3590    -1.8340     4.3880 hc         1 EQN       0.036033
     34 HACB         4.0260    -1.4100     3.9770 hc         1 EQN       0.036033
     35 HAD          2.9030     1.7500     2.9010 hc         1 EQN       0.036033
     36 HADA         4.0700     0.7780     3.8080 hc         1 EQN       0.036033
     37 HADB         2.4430     1.0350     4.4530 hc         1 EQN       0.036033
     38 HAH          7.8260     1.8040    -3.7970 ha         1 EQN       0.124000
     39 HAI          5.5290    -1.7290    -4.5850 ha         1 EQN       0.124000
     40 HAJ          8.8330     1.6560    -6.0370 ha         1 EQN       0.154500
     41 HAK          6.5300    -1.8870    -6.8250 ha         1 EQN       0.154500
     42 HAL          6.0250     0.2960    -0.1250 ha         1 EQN       0.128000
     43 HAM          5.0050     0.2990     2.1100 ha         1 EQN       0.128000
     44 HAN          2.3100    -1.0610    -1.7840 ha         1 EQN       0.160000
     45 HAO         -0.5240    -1.6520     1.9970 hc         1 EQN       0.044200
     46 HAOA         1.0590    -2.4350     2.1750 hc         1 EQN       0.044200
     47 HAP          0.6490     0.5680     2.4130 hc         1 EQN       0.044200
     48 HAPA         0.6340    -0.5300     3.8080 hc         1 EQN       0.044200
     49 HNAQ         6.7400     0.1900    -1.8670 hn         1 EQN       0.316500
     50 CAS          4.8340    -0.3930    -2.4570 c          1 EQN       0.671700
@<TRIPOS>BOND
     1     1    24 1
     2     1    26 1
     3     1    27 1
     4     1    28 1
     5     2    24 1
     6     2    29 1
     7     2    30 1
     8     2    31 1
     9     3    25 1
    10     3    32 1
    11     3    33 1
    12     3    34 1
    13     4    25 1
    14     4    35 1
    15     4    36 1
    16     4    37 1
    17     5    18 1
    18     6    50 2
    19     7    18 1
    20     8    10 ar
    21     8    19 ar
    22     8    38 1
    23     9    11 ar
    24     9    19 ar
    25     9    39 1
    26    10    20 ar
    27    10    40 1
    28    11    20 ar
    29    11    41 1
    30    12    13 ar
    31    12    21 ar
    32    12    42 1
    33    13    22 ar
    34    13    43 1
    35    14    21 ar
    36    14    23 ar
    37    14    44 1
    38    15    16 1
    39    15    24 1
    40    15    45 1
    41    15    46 1
    42    16    25 1
    43    16    47 1
    44    16    48 1
    45    17    50 1
    46    17    19 1
    47    17    49 1
    48    18    20 1
    49    50    21 1
    50    22    23 ar
    51    22    25 1
    52    23    24 1
@<TRIPOS>SUBSTRUCTURE
     1 EQN         1 TEMP              0 ****  ****    0 ROOT
