@<TRIPOS>MOLECULE
molecule
   54    57     1     0     0
SMALL
bcc


@<TRIPOS>ATOM
      1 CAA          0.0000     0.0000     0.0000 c3         1 EQO      -0.094100
      2 CAB          0.1300    -0.9490     2.3070 c3         1 EQO      -0.094100
      3 OAC          0.8960   -13.7180    -2.7360 o          1 EQO      -0.798800
      4 OAD          2.4750   -12.9110    -3.9350 o          1 EQO      -0.798800
      5 CAE          3.9200    -1.0730    -1.9680 cg         1 EQO      -0.170300
      6 CAF          4.6070    -1.0890    -2.9190 ch         1 EQO      -0.120000
      7 CAG          1.3490    -7.0080    -0.9130 ce         1 EQO      -0.049200
      8 CAH          2.1030    -5.9450    -1.2380 cf         1 EQO      -0.137200
      9 CAI          3.0340     0.0000     0.0000 c2         1 EQO      -0.158200
     10 CAJ          7.1960     0.0000    -6.9590 ca         1 EQO      -0.102000
     11 CAK          6.8740     1.0240    -6.1530 ca         1 EQO      -0.122500
     12 CAL          6.1830    -0.8220    -6.9610 ca         1 EQO      -0.122500
     13 CAM          6.1480     1.0180    -4.9820 ca         1 EQO      -0.114000
     14 CAN          6.1720    -1.4890    -5.7210 ca         1 EQO      -0.114000
     15 CAO          0.1410    -9.4850    -1.0800 ca         1 EQO      -0.118000
     16 CAP          2.0610    -8.6800    -2.3190 ca         1 EQO      -0.118000
     17 CAQ          0.7170    -4.4690     0.2080 ca         1 EQO      -0.112000
     18 CAR          0.3290   -10.7330    -1.6010 ca         1 EQO      -0.141500
     19 CAS          2.2490    -9.9290    -2.8400 ca         1 EQO      -0.141500
     20 CAT          0.4240    -3.2300     0.7400 ca         1 EQO      -0.142000
     21 CAU          2.5760    -3.5130    -1.0070 ca         1 EQO      -0.112000
     22 CAV          2.1700     0.0000     1.2300 c3         1 EQO      -0.103200
     23 CAW          1.6510   -12.5930    -3.1670 c          1 EQO       0.886200
     24 CAX          3.0880    -1.0770    -0.8020 ce         1 EQO       0.082100
     25 CAY          5.6300    -0.4980    -4.5690 ca         1 EQO       0.068000
     26 CAZ          1.0050    -8.4430    -1.4330 ca         1 EQO      -0.148800
     27 CBA          1.7940    -4.6210    -0.6700 ca         1 EQO      -0.032800
     28 CBB          1.3850   -10.9710    -2.4860 ca         1 EQO      -0.130600
     29 CBC          2.2730    -2.2730    -0.4650 ca         1 EQO      -0.039800
     30 CBD          1.1940    -2.1320     0.4100 ca         1 EQO      -0.107300
     31 CBE          0.8790    -0.7760     0.9840 c3         1 EQO      -0.006700
     32 HAA         -0.1730     0.9380     0.5130 hc         1 EQO       0.047867
     33 HAAA        -0.9320    -0.5460    -0.0830 hc         1 EQO       0.047867
     34 HAAB         0.6610    -0.1010    -0.8520 hc         1 EQO       0.047867
     35 HAB         -0.9120    -1.1370     2.0790 hc         1 EQO       0.047867
     36 HABA         0.3810    -0.0510     2.8590 hc         1 EQO       0.047867
     37 HABB         0.6460    -1.6670     2.9320 hc         1 EQO       0.047867
     38 HAG          0.7970    -7.2580    -0.0150 ha         1 EQO       0.110000
     39 HAH          2.5950    -5.7150    -2.1750 ha         1 EQO       0.128000
     40 HAI          3.7090     0.8450    -0.0620 ha         1 EQO       0.123000
     41 HAJ          7.9520     0.3670    -7.6420 ha         1 EQO       0.139000
     42 HAK          7.5500     1.8420    -5.9360 ha         1 EQO       0.104000
     43 HAL          6.4230    -1.4640    -7.8000 ha         1 EQO       0.104000
     44 HAM          6.2440     1.6000    -4.0730 ha         1 EQO       0.154500
     45 HAN          5.9950    -2.5560    -5.7730 ha         1 EQO       0.154500
     46 HAO         -0.5190    -8.9600    -0.4010 ha         1 EQO       0.117500
     47 HAP          2.9430    -8.1350    -2.6340 ha         1 EQO       0.117500
     48 HAQ          0.1300    -5.2710     0.6390 ha         1 EQO       0.135000
     49 HAR         -0.3270   -11.5860    -1.4680 ha         1 EQO       0.153500
     50 HAS          3.0900   -10.3470    -3.3800 ha         1 EQO       0.153500
     51 HAT         -0.2180    -2.8870     1.5430 ha         1 EQO       0.139000
     52 HAU          3.1180    -3.5940    -1.9410 ha         1 EQO       0.143000
     53 HAV          3.1210     0.1550     1.7260 hc         1 EQO       0.075200
     54 HAVA         1.5190     0.8240     1.4970 hc         1 EQO       0.075200
@<TRIPOS>BOND
     1     1    31 1
     2     1    32 1
     3     1    33 1
     4     1    34 1
     5     2    31 1
     6     2    35 1
     7     2    36 1
     8     2    37 1
     9     3    23 1
    10     4    23 1
    11     5     6 3
    12     5    24 1
    13     6    25 1
    14     7     8 2
    15     7    26 1
    16     7    38 1
    17     8    27 1
    18     8    39 1
    19     9    22 1
    20     9    24 2
    21     9    40 1
    22    10    11 ar
    23    10    12 ar
    24    10    41 1
    25    11    13 ar
    26    11    42 1
    27    12    14 ar
    28    12    43 1
    29    13    25 ar
    30    13    44 1
    31    14    25 ar
    32    14    45 1
    33    15    18 ar
    34    15    26 ar
    35    15    46 1
    36    16    19 ar
    37    16    26 ar
    38    16    47 1
    39    17    20 ar
    40    17    27 ar
    41    17    48 1
    42    18    28 ar
    43    18    49 1
    44    19    28 ar
    45    19    50 1
    46    20    30 ar
    47    20    51 1
    48    21    27 ar
    49    21    29 ar
    50    21    52 1
    51    22    31 1
    52    22    53 1
    53    22    54 1
    54    23    28 1
    55    24    29 1
    56    29    30 ar
    57    30    31 1
@<TRIPOS>SUBSTRUCTURE
     1 EQO         1 TEMP              0 ****  ****    0 ROOT
