@<TRIPOS>MOLECULE
EQP
   39    39     1     0     0
SMALL
bcc


@<TRIPOS>ATOM
      1 P1           0.0000     0.0000     0.0000 p5         1 EQP       0.431700
      2 C2           1.8230     0.0000     0.0000 c3         1 EQP       0.171900
      3 C3           2.3320     0.0000     1.4430 c3         1 EQP      -0.056400
      4 C4           3.8640    -0.0340     1.4310 c3         1 EQP       0.158100
      5 C5           4.3740     1.1180     0.5590 c3         1 EQP      -0.030300
      6 C6           3.7100     1.0370    -0.8170 c3         1 EQP       0.122100
      7 C7           4.2360     2.1660    -1.7050 c3         1 EQP       0.185100
      8 C8           3.5790     2.0790    -3.0830 c3         1 EQP       0.157100
      9 C9           4.1040     3.2070    -3.9720 c3         1 EQP       0.179400
     10 C11          8.1360     1.5210     1.1380 c3         1 EQP      -0.075100
     11 N5           5.8270     1.0150     0.4090 ns         1 EQP      -0.178900
     12 O1P         -0.4920     1.2090     0.6980 o          1 EQP      -0.733833
     13 O2P         -0.5370     0.0010    -1.5160 o          1 EQP      -0.733833
     14 O3P         -0.5370    -1.3130     0.7600 o          1 EQP      -0.733833
     15 O4           4.3610     0.1170     2.7630 oh         1 EQP      -0.593800
     16 O6           2.2970     1.1600    -0.6790 os         1 EQP      -0.293600
     17 O7           3.9230     3.4250    -1.1070 oh         1 EQP      -0.542800
     18 O8           3.8910     0.8180    -3.6800 oh         1 EQP      -0.598800
     19 O9           3.4920     3.1250    -5.2600 oh         1 EQP      -0.587800
     20 O10          6.1700     2.2570     2.2140 o          1 EQP      -0.640100
     21 H2           2.1860    -0.8850    -0.5080 h1         1 EQP      -0.014300
     22 H31          1.9560    -0.8750     1.9590 hc         1 EQP       0.043200
     23 H32          1.9940     0.8980     1.9460 hc         1 EQP       0.043200
     24 H4           4.2010    -0.9770     1.0170 h1         1 EQP      -0.023300
     25 H5           4.1200     2.0620     1.0250 h1         1 EQP       0.092700
     26 H6           3.9420     0.0800    -1.2690 h1         1 EQP       0.016700
     27 H7           5.3100     2.0720    -1.8110 h1         1 EQP      -0.028300
     28 H8           2.5050     2.1720    -2.9780 h1         1 EQP       0.084700
     29 H91          5.1790     3.1140    -4.0760 h1         1 EQP      -0.018800
     30 H92          3.8670     4.1630    -3.5200 h1         1 EQP      -0.018800
     31 H111         8.6200     1.9620     2.0010 hc         1 EQP       0.006700
     32 H112         8.4430     2.0480     0.2430 hc         1 EQP       0.006700
     33 H113         8.4210     0.4790     1.0580 hc         1 EQP       0.006700
     34 HN5          6.2150     0.4560    -0.3250 hn         1 EQP       0.154500
     35 HO4          4.3110    -0.7110     3.2120 ho         1 EQP       0.365000
     36 HO7          4.6710     3.9960    -1.1680 ho         1 EQP       0.351000
     37 HO8          3.2820     0.6420    -4.3780 ho         1 EQP       0.405000
     38 HO9          3.7760     3.8510    -5.7910 ho         1 EQP       0.368000
     39 C10          6.6410     1.6270     1.2910 c          1 EQP       0.552100
@<TRIPOS>BOND
     1     1     2 1   
     2     1    12 1   
     3     1    13 1   
     4     1    14 1   
     5     2     3 1   
     6     2    16 1   
     7     2    21 1   
     8     3     4 1   
     9     3    22 1   
    10     3    23 1   
    11     4     5 1   
    12     4    15 1   
    13     4    24 1   
    14     5     6 1   
    15     5    11 1   
    16     5    25 1   
    17     6     7 1   
    18     6    16 1   
    19     6    26 1   
    20     7     8 1   
    21     7    17 1   
    22     7    27 1   
    23     8     9 1   
    24     8    18 1   
    25     8    28 1   
    26     9    19 1   
    27     9    29 1   
    28     9    30 1   
    29    10    31 1   
    30    10    32 1   
    31    10    33 1   
    32    10    39 1   
    33    11    34 1   
    34    11    39 1   
    35    15    35 1   
    36    17    36 1   
    37    18    37 1   
    38    19    38 1   
    39    20    39 2   
@<TRIPOS>SUBSTRUCTURE
     1 EQP         1 TEMP              0 ****  ****    0 ROOT
