@<TRIPOS>MOLECULE
molecule
   17    18     1     0     0
SMALL
bcc


@<TRIPOS>ATOM
      1 C2           0.0000     0.0000     0.0000 cc         1 EQT       0.616800
      2 N4           0.7100     0.0040    -2.1000 na         1 EQT      -0.049100
      3 C5           1.8570     0.0000    -1.3520 ca         1 EQT      -0.007200
      4 C6           3.2140    -0.0030    -1.6690 ca         1 EQT      -0.164000
      5 C7           4.1510    -0.0070    -0.6610 ca         1 EQT      -0.076000
      6 C8           3.7590     0.0000     0.6710 ca         1 EQT      -0.171000
      7 C11          1.4630     0.0000     0.0000 ca         1 EQT      -0.262900
      8 N1          -0.8250    -0.0010     1.1290 nv         1 EQT      -1.012800
      9 N3          -0.3970     0.0060    -1.2440 nd         1 EQT      -0.519100
     10 C9           2.4340     0.0000     1.0060 ca         1 EQT       0.110400
     11 Cl1          1.9590    -0.0010     2.6750 cl         1 EQT      -0.103400
     12 H12          0.6690     0.0080    -3.1000 hn         1 EQT       0.335700
     13 H15          3.5300    -0.0090    -2.7050 ha         1 EQT       0.134000
     14 H16          5.2050    -0.0070    -0.9100 ha         1 EQT       0.138000
     15 H17          4.5100    -0.0030     1.4520 ha         1 EQT       0.145000
     16 H14         -1.1080    -0.8680     1.5410 hn         1 EQT       0.441800
     17 H13         -1.1700     0.8640     1.4970 hn         1 EQT       0.441800
@<TRIPOS>BOND
     1     9     2 1
     2     9     1 2
     3     2     3 1
     4     1     8 1
     5     1     7 1
     6     3     4 ar
     7     3     7 ar
     8     4     5 ar
     9     7    10 ar
    10     5     6 ar
    11    10     6 ar
    12    10    11 1
    13     2    12 1
    14     4    13 1
    15     5    14 1
    16     6    15 1
    17     8    16 1
    18     8    17 1
@<TRIPOS>SUBSTRUCTURE
     1 EQT         1 TEMP              0 ****  ****    0 ROOT
