@<TRIPOS>MOLECULE
EQU
   38    41     1     0     0
SMALL
bcc


@<TRIPOS>ATOM
      1 C1         -0.0870   -0.0010   -0.0660 ca        1 EQU      0.130100
      2 C2          1.2900   -0.0850   -0.0550 ca        1 EQU     -0.219000
      3 C3          1.9860   -0.0900    1.1830 ca        1 EQU      0.002000
      4 C4          1.2640   -0.0110    2.4020 ca        1 EQU     -0.059000
      5 C5         -0.1580    0.0770    2.3440 ca        1 EQU     -0.093000
      6 C6         -0.8270    0.0830    1.1490 ca        1 EQU     -0.140000
      7 C10         3.4050   -0.1720    1.2130 ca        1 EQU     -0.131000
      8 C11         4.0740   -0.1680    2.4090 ca        1 EQU     -0.108000
      9 C12         3.3620   -0.0870    3.6290 ca        1 EQU     -0.073300
     10 C13         1.9750   -0.0180    3.6420 ca        1 EQU     -0.048300
     11 C16         4.0710   -0.0040    4.9270 c3        1 EQU     -0.023400
     12 C17         3.2930   -0.7840    6.0140 c3        1 EQU     -0.151000
     13 C18         1.9770   -0.0630    6.2170 c3        1 EQU     -0.055400
     14 C19         1.1910    0.0270    4.9140 c3        1 EQU     -0.038100
     15 C24         5.5140   -0.4790    5.0750 c3        1 EQU     -0.070400
     16 C25         5.6820   -0.6990    6.5810 c3        1 EQU     -0.188400
     17 C26         4.2870   -0.7750    7.1690 c         1 EQU      0.578100
     18 C27         3.0520   -2.2440    5.6540 c3        1 EQU     -0.082100
     19 O1         -0.8390    0.0100   -1.2180 oh        1 EQU     -0.496100
     20 O26         4.0190   -0.8300    8.3660 o         1 EQU     -0.518100
     21 H2          1.8630   -0.1480   -0.9910 ha        1 EQU      0.136000
     22 H5         -0.7300    0.1440    3.2830 ha        1 EQU      0.137000
     23 H6         -1.9230    0.1500    1.0950 ha        1 EQU      0.152000
     24 H10         3.9510   -0.2370    0.2600 ha        1 EQU      0.133000
     25 H11         5.1730   -0.2260    2.4410 ha        1 EQU      0.134000
     26 H16         4.0600    1.0900    5.2200 hc        1 EQU      0.063700
     27 H181        1.3630   -0.5990    6.9870 hc        1 EQU      0.053700
     28 H182        2.1770    0.9680    6.6130 hc        1 EQU      0.053700
     29 H191        0.4560   -0.8260    4.8890 hc        1 EQU      0.054200
     30 H192        0.5930    0.9800    4.9300 hc        1 EQU      0.054200
     31 H241        5.6830   -1.4300    4.5120 hc        1 EQU      0.052200
     32 H242        6.2340    0.2830    4.6910 hc        1 EQU      0.052200
     33 H251        6.2360   -1.6450    6.7980 hc        1 EQU      0.076200
     34 H252        6.2430    0.1460    7.0540 hc        1 EQU      0.076200
     35 H271        2.5300   -2.7570    6.4980 hc        1 EQU      0.046367
     36 H272        4.0210   -2.7640    5.4580 hc        1 EQU      0.046367
     37 H273        2.4180   -2.3170    4.7380 hc        1 EQU      0.046367
     38 HO1        -0.2320   -0.0490   -1.9710 ho        1 EQU      0.420000
@<TRIPOS>BOND
     1    1    2 ar  
     2    1    6 ar  
     3    1   19 1   
     4    2    3 ar  
     5    2   21 1   
     6    3    4 ar  
     7    3    7 ar  
     8    4    5 ar  
     9    4   10 ar  
    10    5    6 ar  
    11    5   22 1   
    12    6   23 1   
    13    7    8 ar  
    14    7   24 1   
    15    8    9 ar  
    16    8   25 1   
    17    9   10 ar  
    18    9   11 1   
    19   10   14 1   
    20   11   12 1   
    21   11   15 1   
    22   11   26 1   
    23   12   13 1   
    24   12   17 1   
    25   12   18 1   
    26   13   14 1   
    27   13   27 1   
    28   13   28 1   
    29   14   29 1   
    30   14   30 1   
    31   15   16 1   
    32   15   31 1   
    33   15   32 1   
    34   16   17 1   
    35   16   33 1   
    36   16   34 1   
    37   17   20 2   
    38   18   35 1   
    39   18   36 1   
    40   18   37 1   
    41   19   38 1   
@<TRIPOS>SUBSTRUCTURE
     1 EQU         1 TEMP              0 ****  ****    0 ROOT
