@<TRIPOS>MOLECULE
molecule
   38    41     1     0     0
SMALL
bcc


@<TRIPOS>ATOM
      1 C1           0.0000     0.0000     0.0000 ca         1 EQU       0.108100
      2 C2           1.3650     0.0000     0.0000 ca         1 EQU      -0.145000
      3 C3           2.0600     0.0000     1.2210 ca         1 EQU      -0.023000
      4 C4           1.3340    -0.0030     2.4340 ca         1 EQU      -0.045000
      5 C5          -0.0730    -0.0020     2.3990 ca         1 EQU      -0.108000
      6 C6          -0.7160     0.0000     1.2020 ca         1 EQU      -0.146000
      7 C10          3.4640     0.0030     1.2600 ca         1 EQU      -0.119000
      8 C11          4.0950     0.0170     2.4640 ca         1 EQU      -0.117000
      9 C12          3.3810     0.0210     3.6620 ca         1 EQU      -0.067300
     10 C13          2.0180    -0.0120     3.6720 ca         1 EQU      -0.056300
     11 C16          4.1160     0.0910     4.9580 c3         1 EQU      -0.025400
     12 C17          3.2850    -0.7010     6.0010 c3         1 EQU      -0.177000
     13 C18          2.0060     0.0840     6.2070 c3         1 EQU      -0.056400
     14 C19          1.1820    -0.0610     4.9220 c3         1 EQU      -0.036100
     15 C24          5.4720    -0.6130     5.0290 c3         1 EQU      -0.072400
     16 C25          5.6410    -0.8530     6.5560 c3         1 EQU      -0.190400
     17 C26          4.2220    -0.8270     7.1640 c          1 EQU       0.590100
     18 C27          2.9540    -2.0910     5.4510 c3         1 EQU      -0.077100
     19 O1          -0.6710     0.0000    -1.1810 oh         1 EQU      -0.523100
     20 O26          3.9280    -0.8980     8.3330 o          1 EQU      -0.503100
     21 H2           1.9100    -0.0000    -0.9360 ha         1 EQU       0.143000
     22 H5          -0.6400    -0.0020     3.3210 ha         1 EQU       0.138000
     23 H6          -1.7990     0.0000     1.1770 ha         1 EQU       0.140000
     24 H10          4.0310     0.1590     0.3500 ha         1 EQU       0.136000
     25 H11          5.1770     0.0280     2.4930 ha         1 EQU       0.131000
     26 H16          4.2160     1.1220     5.2720 hc         1 EQU       0.070700
     27 H181         1.4550    -0.3210     7.0460 hc         1 EQU       0.055700
     28 H182         2.2390     1.1280     6.3790 hc         1 EQU       0.055700
     29 H191         0.4560     0.7420     4.8850 hc         1 EQU       0.055700
     30 H192         0.6580    -1.0090     4.9520 hc         1 EQU       0.055700
     31 H241         6.2580     0.0310     4.6530 hc         1 EQU       0.054200
     32 H242         5.4450    -1.5540     4.4940 hc         1 EQU       0.054200
     33 H251         6.2440    -0.0650     6.9900 hc         1 EQU       0.071200
     34 H252         6.1000    -1.8190     6.7300 hc         1 EQU       0.071200
     35 H271         2.9250    -2.0540     4.3690 hc         1 EQU       0.046367
     36 H272         3.7150    -2.7950     5.7680 hc         1 EQU       0.046367
     37 H273         1.9900    -2.4080     5.8280 hc         1 EQU       0.046367
     38 HO1         -0.7930     0.8880    -1.4740 ho         1 EQU       0.419000
@<TRIPOS>BOND
     1     1     2 ar
     2     1     6 ar
     3     1    19 1
     4     2     3 ar
     5     2    21 1
     6     3     4 ar
     7     3     7 ar
     8     4     5 ar
     9     4    10 ar
    10     5     6 ar
    11     5    22 1
    12     6    23 1
    13     7     8 ar
    14     7    24 1
    15     8     9 ar
    16     8    25 1
    17     9    10 ar
    18     9    11 1
    19    10    14 1
    20    11    12 1
    21    11    15 1
    22    11    26 1
    23    12    13 1
    24    12    17 1
    25    12    18 1
    26    13    14 1
    27    13    27 1
    28    13    28 1
    29    14    29 1
    30    14    30 1
    31    15    16 1
    32    15    31 1
    33    15    32 1
    34    16    17 1
    35    16    33 1
    36    16    34 1
    37    17    20 2
    38    18    35 1
    39    18    36 1
    40    18    37 1
    41    19    38 1
@<TRIPOS>SUBSTRUCTURE
     1 EQU         1 TEMP              0 ****  ****    0 ROOT
