@<TRIPOS>MOLECULE
molecule
   49    51     1     0     0
SMALL
bcc


@<TRIPOS>ATOM
      1 C01          0.0000     0.0000     0.0000 c3         1 EQV      -0.073100
      2 C02          1.5300     0.0000     0.0000 c3         1 EQV      -0.067700
      3 C03          2.0580     0.0000     1.4460 c3         1 EQV       0.139100
      4 C04          2.8730    -1.2980     1.6170 c3         1 EQV      -0.099400
      5 C05          3.2910    -1.6830     0.1750 c3         1 EQV       0.016500
      6 C06          2.0570    -1.2870    -0.6600 c3         1 EQV      -0.096700
      7 C07          2.4750    -1.0040    -2.1010 c3         1 EQV       0.338900
      8 O08          3.4530     0.0710    -2.1130 os         1 EQV      -0.372900
      9 C09          4.5040    -0.0560    -1.2840 c2         1 EQV       0.005100
     10 C10          4.4780    -0.8520    -0.2130 ce         1 EQV      -0.233400
     11 C11          5.6340    -0.9140     0.6020 c          1 EQV       0.887800
     12 O12          6.6160    -0.2530     0.3170 o          1 EQV      -0.855300
     13 O13          5.6480    -1.7060     1.6940 o          1 EQV      -0.855300
     14 O14          3.0520    -2.1800    -2.6690 os         1 EQV      -0.394600
     15 C15          3.3770    -2.0570    -4.0560 c3         1 EQV       0.342900
     16 C16          4.0970    -3.3230    -4.5270 c3         1 EQV       0.120100
     17 C17          4.3880    -3.2090    -6.0260 c3         1 EQV       0.107100
     18 C18          3.0710    -2.9770    -6.7740 c3         1 EQV       0.097100
     19 C19          2.3910    -1.7240    -6.2160 c3         1 EQV       0.159100
     20 O20          2.1770    -1.8840    -4.8120 os         1 EQV      -0.436600
     21 C21          1.0450    -1.5190    -6.9180 c3         1 EQV       0.150400
     22 O22          0.4640    -0.2890    -6.4810 oh         1 EQV      -0.592800
     23 O23          3.3380    -2.7960    -8.1660 oh         1 EQV      -0.608800
     24 O24          4.9940    -4.4170    -6.4890 oh         1 EQV      -0.610800
     25 O25          5.3260    -3.4670    -3.8110 oh         1 EQV      -0.572800
     26 O26          0.9650     0.0180     2.3660 oh         1 EQV      -0.623800
     27 H1          -0.3610    -0.0240    -1.0210 hc         1 EQV       0.027700
     28 H2          -0.3610    -0.8720     0.5310 hc         1 EQV       0.027700
     29 H3          -0.3610     0.8960     0.4900 hc         1 EQV       0.027700
     30 H4           1.9050     0.8670    -0.5300 hc         1 EQV       0.065700
     31 H5           2.6970     0.8600     1.6050 h1         1 EQV       0.042700
     32 H6           3.7490    -1.1160     2.2270 hc         1 EQV       0.078200
     33 H7           2.2570    -2.0760     2.0510 hc         1 EQV       0.078200
     34 H8           3.5020    -2.7430     0.0940 hc         1 EQV       0.075700
     35 H10          1.3070    -2.0670    -0.6260 hc         1 EQV       0.059700
     36 H13          1.6070    -0.7070    -2.6760 h2         1 EQV       0.077700
     37 H15          5.4050     0.5080    -1.4930 h4         1 EQV       0.190000
     38 H17          4.0230    -1.2000    -4.2050 h2         1 EQV       0.064700
     39 H18          3.4650    -4.1840    -4.3480 h1         1 EQV       0.057700
     40 H19          5.0540    -2.3730    -6.2010 h1         1 EQV       0.063700
     41 H20          2.4210    -3.8320    -6.6330 h1         1 EQV       0.053700
     42 H21          3.0270    -0.8640    -6.3870 h1         1 EQV       0.064700
     43 H22          0.3810    -2.3390    -6.6730 h1         1 EQV       0.030700
     44 H23          1.1980    -1.4860    -7.9900 h1         1 EQV       0.030700
     45 H24         -0.2200    -0.0350    -7.0780 ho         1 EQV       0.394000
     46 H25          3.1320    -3.5900    -8.6310 ho         1 EQV       0.406000
     47 H26          5.8210    -4.2170    -6.8970 ho         1 EQV       0.411000
     48 H27          5.4350    -4.3670    -3.5530 ho         1 EQV       0.412000
     49 H28          1.1950     0.5390     3.1170 ho         1 EQV       0.389000
@<TRIPOS>BOND
     1     1     2 1
     2     2     3 1
     3     2     6 1
     4     3     4 1
     5     3    26 1
     6     4     5 1
     7     5    10 1
     8     6     7 1
     9     7    14 1
    10     8     9 1
    11     9    10 2
    12    10    11 1
    13    11    12 1
    14    11    13 1
    15    14    15 1
    16    15    16 1
    17    15    20 1
    18    16    17 1
    19    16    25 1
    20    17    18 1
    21    17    24 1
    22    18    19 1
    23    18    23 1
    24    19    20 1
    25    19    21 1
    26    21    22 1
    27     1    27 1
    28     1    28 1
    29     1    29 1
    30     2    30 1
    31     3    31 1
    32     4    32 1
    33     4    33 1
    34     5    34 1
    35     6    35 1
    36     6     5 1
    37     7     8 1
    38     7    36 1
    39     9    37 1
    40    15    38 1
    41    16    39 1
    42    17    40 1
    43    18    41 1
    44    19    42 1
    45    21    43 1
    46    21    44 1
    47    22    45 1
    48    23    46 1
    49    24    47 1
    50    25    48 1
    51    26    49 1
@<TRIPOS>SUBSTRUCTURE
     1 EQV         1 TEMP              0 ****  ****    0 ROOT
