@<TRIPOS>MOLECULE
EQW
   26    27     1     0     0
SMALL
bcc


@<TRIPOS>ATOM
      1 C2           0.0000     0.0000     0.0000 ca         1 EQW      -0.367200
      2 C3           1.3870     0.0000     0.0000 ca         1 EQW       0.499200
      3 N4           2.0320     0.0000     1.1550 nb         1 EQW      -0.691000
      4 C5           1.3690     0.0000     2.3010 ca         1 EQW       0.722900
      5 C7           3.5410    -0.0050     3.4720 c3         1 EQW       0.135500
      6 C8           4.0710     0.5960     4.7790 c3         1 EQW      -0.081900
      7 C11          5.5820    -1.4400     3.3980 c3         1 EQW       0.220900
      8 C12          4.0520    -1.4430     3.3380 c3         1 EQW      -0.081900
      9 C14         -0.6620     0.0050     1.2190 ca         1 EQW       0.499200
     10 Cl1         -0.8870     0.0000    -1.4920 cl         1 EQW       0.000600
     11 N6           2.0760    -0.0050     3.4920 nu         1 EQW      -0.472900
     12 C9           5.6000     0.5200     4.7830 c3         1 EQW       0.220900
     13 O10          6.0080    -0.8410     4.6260 os         1 EQW      -0.409600
     14 N13          0.0450     0.0000     2.3370 nb         1 EQW      -0.691000
     15 H15          1.9360    -0.0020    -0.9340 h4         1 EQW      -0.010400
     16 H17          3.8970     0.5840     2.6350 h1         1 EQW       0.056700
     17 H18          3.7610     1.6310     4.8530 hc         1 EQW       0.029450
     18 H19          3.6800     0.0340     5.6190 hc         1 EQW       0.029450
     19 H23          5.9750    -0.8700     2.5650 h1         1 EQW       0.009700
     20 H22          5.9470    -2.4590     3.3500 h1         1 EQW       0.009700
     21 H24          3.7290    -1.8540     2.3890 hc         1 EQW       0.029450
     22 H25          3.6600    -2.0420     4.1510 hc         1 EQW       0.029450
     23 H26         -1.7450     0.0060     1.2540 h4         1 EQW      -0.010400
     24 H16          1.5870     0.0280     4.3640 hn         1 EQW       0.303800
     25 H20          5.9920     1.1100     3.9640 h1         1 EQW       0.009700
     26 H21          5.9770     0.9030     5.7240 h1         1 EQW       0.009700
@<TRIPOS>BOND
     1     1     2 ar  
     2     1     9 ar  
     3     1    10 1   
     4     2     3 ar  
     5     2    15 1   
     6     3     4 ar  
     7     4    11 1   
     8     4    14 ar  
     9     5     6 1   
    10     5     8 1   
    11     5    11 1   
    12     5    16 1   
    13     6    12 1   
    14     6    17 1   
    15     6    18 1   
    16     7     8 1   
    17     7    13 1   
    18     7    19 1   
    19     7    20 1   
    20     8    21 1   
    21     8    22 1   
    22     9    14 ar  
    23     9    23 1   
    24    11    24 1   
    25    12    13 1   
    26    12    25 1   
    27    12    26 1   
@<TRIPOS>SUBSTRUCTURE
     1 EQW         1 TEMP              0 ****  ****    0 ROOT
