@<TRIPOS>MOLECULE
molecule
   26    27     1     0     0
SMALL
bcc


@<TRIPOS>ATOM
      1 C2           0.0000     0.0000     0.0000 ca         1 EQW      -0.298200
      2 C3           1.3870     0.0000     0.0000 ca         1 EQW       0.512200
      3 N4           2.0320     0.0000     1.1550 nb         1 EQW      -0.790500
      4 C5           1.3690     0.0000     2.3010 ca         1 EQW       0.941900
      5 C7           3.5410    -0.0050     3.4720 c3         1 EQW       0.249500
      6 C8           4.0710     0.5960     4.7790 c3         1 EQW      -0.133900
      7 C11          5.5820    -1.4400     3.3980 c3         1 EQW       0.140900
      8 C12          4.0520    -1.4430     3.3380 c3         1 EQW      -0.133900
      9 C14         -0.6620     0.0050     1.2190 ca         1 EQW       0.512200
     10 Cl1         -0.8870     0.0000    -1.4920 cl         1 EQW      -0.095400
     11 N6           2.0760    -0.0050     3.4920 nu         1 EQW      -0.888900
     12 C9           5.6000     0.5200     4.7830 c3         1 EQW       0.140900
     13 O10          6.0080    -0.8410     4.6260 os         1 EQW      -0.422600
     14 N13          0.0450     0.0000     2.3370 nb         1 EQW      -0.790500
     15 H15          1.9360    -0.0020    -0.9340 h4         1 EQW       0.039600
     16 H17          3.8970     0.5840     2.6350 h1         1 EQW       0.078700
     17 H18          3.7610     1.6310     4.8530 hc         1 EQW       0.059200
     18 H19          3.6800     0.0340     5.6190 hc         1 EQW       0.059200
     19 H23          5.9750    -0.8700     2.5650 h1         1 EQW       0.050450
     20 H22          5.9470    -2.4590     3.3500 h1         1 EQW       0.050450
     21 H24          3.7290    -1.8540     2.3890 hc         1 EQW       0.059200
     22 H25          3.6600    -2.0420     4.1510 hc         1 EQW       0.059200
     23 H26         -1.7450     0.0060     1.2540 h4         1 EQW       0.039600
     24 H16          1.5870     0.0280     4.3640 hn         1 EQW       0.460800
     25 H20          5.9920     1.1100     3.9640 h1         1 EQW       0.050450
     26 H21          5.9770     0.9030     5.7240 h1         1 EQW       0.050450
@<TRIPOS>BOND
     1    13     7 1
     2    13    12 1
     3     7     8 1
     4     8     5 1
     5    12     6 1
     6     6     5 1
     7     5    11 1
     8    11     4 1
     9     4    14 ar
    10     4     3 ar
    11    14     9 ar
    12     3     2 ar
    13     9     1 ar
    14     2     1 ar
    15     1    10 1
    16     2    15 1
    17     5    16 1
    18     6    17 1
    19     6    18 1
    20     7    19 1
    21     7    20 1
    22     8    21 1
    23     8    22 1
    24     9    23 1
    25    11    24 1
    26    12    25 1
    27    12    26 1
@<TRIPOS>SUBSTRUCTURE
     1 EQW         1 TEMP              0 ****  ****    0 ROOT
